examples/TrmD/0_docked.pdbqt
 OpenBabel01022516373D

 27 29  0  0  1  0  0  0  0  0999 V2000
  -35.6320    9.8030   -3.2570 C   0  0  1  0  0  3  0  0  0  0  0  0
  -36.8570    9.4810   -3.1030 N   0  0  0  0  0  4  0  0  0  0  0  0
  -35.6620   10.8120   -3.9000 C   0  0  0  0  0  2  0  0  0  0  0  0
  -35.7800   10.6280   -5.2990 C   0  0  0  0  0  2  0  0  0  0  0  0
  -34.5130   10.2410   -5.9460 C   0  0  2  0  0  3  0  0  0  0  0  0
  -33.6870   11.2210   -6.0380 N   0  0  0  0  0  4  0  0  0  0  0  0
  -34.7810    9.8820   -7.2030 C   0  0  0  0  0  0  0  0  0  0  0  0
  -34.1150    9.1060   -7.6680 O   0  0  0  0  0  0  0  0  0  0  0  0
  -35.6200   10.2390   -7.6110 O   0  0  0  0  0  1  0  0  0  0  0  0
  -34.9900   10.0060   -2.1720 C   0  0  0  0  0  2  0  0  0  0  0  0
  -35.6340    9.4030   -1.2180 C   0  0  1  0  0  3  0  0  0  0  0  0
  -35.0640    8.4800   -0.9350 O   0  0  0  0  0  0  0  0  0  0  0  0
  -35.6940    9.7930   -0.1190 C   0  0  2  0  0  3  0  0  0  0  0  0
  -35.4350    7.8940    0.2580 C   0  0  2  0  0  3  0  0  0  0  0  0
  -35.9960    8.8230    0.6720 C   0  0  2  0  0  3  0  0  0  0  0  0
  -36.4910   10.6300   -0.0090 O   0  0  0  0  0  0  0  0  0  0  0  0
  -34.3250    7.3270    0.7710 N   0  0  0  0  0  0  0  0  0  0  0  0
  -33.8500    6.2930    0.4830 C   0  0  0  0  0  0  0  0  0  0  0  0
  -33.6830    7.7590    1.5880 C   0  0  0  0  0  3  0  0  0  0  0  0
  -34.1480    5.5410   -0.1910 N   0  0  0  0  0  0  0  0  0  0  0  0
  -32.9100    6.1120    1.1930 C   0  0  0  0  0  0  0  0  0  0  0  0
  -32.7980    7.0060    1.8900 N   0  0  0  0  0  0  0  0  0  0  0  0
  -33.5730    4.4880   -0.2370 C   0  0  0  0  0  3  0  0  0  0  0  0
  -32.3730    5.1740    1.1070 C   0  0  0  0  0  0  0  0  0  0  0  0
  -32.7310    4.3530    0.3570 N   0  0  0  0  0  0  0  0  0  0  0  0
  -31.6190    5.0550    1.7850 N   0  0  0  0  0  0  0  0  0  0  0  0
  -37.1770    8.8100    0.6620 O   0  0  0  0  0  0  0  0  0  0  0  0
  1  2  1  1  0  0  0
  1 10  1  0  0  0  0
  3  1  1  0  0  0  0
  4  3  1  0  0  0  0
  5  6  1  6  0  0  0
  5  4  1  0  0  0  0
  7  5  1  0  0  0  0
  8  7  2  0  0  0  0
  9  7  1  0  0  0  0
 11 10  1  6  0  0  0
 11 12  1  0  0  0  0
 11 13  1  0  0  0  0
 12 14  1  0  0  0  0
 13 16  1  6  0  0  0
 13 15  1  0  0  0  0
 14 15  1  0  0  0  0
 14 17  1  1  0  0  0
 15 27  1  6  0  0  0
 17 19  1  0  0  0  0
 18 17  1  0  0  0  0
 18 21  1  0  0  0  0
 19 22  2  0  0  0  0
 20 18  2  0  0  0  0
 21 22  1  0  0  0  0
 23 20  1  0  0  0  0
 23 25  2  0  0  0  0
 24 21  2  0  0  0  0
 24 26  1  0  0  0  0
 25 24  1  0  0  0  0
M  END
>  <MODEL>
1

>  <REMARK>
 VINA RESULT:   -11.060      0.000      0.000
 INTER + INTRA:         -18.073
 INTER:                 -16.870
 INTRA:                  -1.203
 UNBOUND:                -1.517
 Flexibility Score: inf
 Active torsions [ 10 ] -> [ 10 ]

>  <TORSDO>
F 10

$$$$
