
     RDKit          3D

 27 29  0  0  0  0  0  0  0  0999 V2000
  -33.7785    8.0784   -0.1983 C   0  0  0  0  0  0  0  0  0  0  0  0
  -32.6862    7.7876    0.4295 N   0  0  0  0  0  0  0  0  0  0  0  0
  -34.4402    7.0389   -0.2143 C   0  0  0  0  0  0  0  0  0  0  0  0
  -33.8795    6.0312   -0.9465 C   0  0  0  0  0  0  0  0  0  0  0  0
  -34.5605    4.7342   -0.7652 C   0  0  0  0  0  0  0  0  0  0  0  0
  -34.1076    4.0647    0.1498 N   0  0  0  0  0  0  0  0  0  0  0  0
  -34.3483    3.9950   -1.8575 C   0  0  0  0  0  0  0  0  0  0  0  0
  -35.1982    3.7663   -2.5043 O   0  0  0  0  0  0  0  0  0  0  0  0
  -33.3836    3.7899   -2.0681 O   0  0  0  0  0  0  0  0  0  0  0  0
  -34.4573    9.0198    0.3316 C   0  0  0  0  0  0  0  0  0  0  0  0
  -35.2827    9.4935   -0.5762 C   0  0  0  0  0  0  0  0  0  0  0  0
  -34.6558    9.7837   -1.4654 O   0  0  0  0  0  0  0  0  0  0  0  0
  -35.9974    8.8064   -1.2107 C   0  0  0  0  0  0  0  0  0  0  0  0
  -35.3488   10.0186   -2.6076 C   0  0  0  0  0  0  0  0  0  0  0  0
  -36.3055    9.4647   -2.2618 C   0  0  0  0  0  0  0  0  0  0  0  0
  -36.9535    8.5448   -0.6067 O   0  0  0  0  0  0  0  0  0  0  0  0
  -34.5537    9.6743   -3.6413 N   0  0  0  0  0  0  0  0  0  0  0  0
  -34.7075    9.8445   -4.7791 C   0  0  0  0  0  0  0  0  0  0  0  0
  -33.5567    9.1304   -3.5285 C   0  0  0  0  0  0  0  0  0  0  0  0
  -35.5013   10.2775   -5.3234 N   0  0  0  0  0  0  0  0  0  0  0  0
  -33.7984    9.3571   -5.3754 C   0  0  0  0  0  0  0  0  0  0  0  0
  -33.0688    8.9131   -4.6183 N   0  0  0  0  0  0  0  0  0  0  0  0
  -35.5194   10.2677   -6.5054 C   0  0  0  0  0  0  0  0  0  0  0  0
  -33.8204    9.3625   -6.4179 C   0  0  0  0  0  0  0  0  0  0  0  0
  -34.7348    9.8574   -6.9850 N   0  0  0  0  0  0  0  0  0  0  0  0
  -33.0558    8.8200   -6.8850 N   0  0  0  0  0  0  0  0  0  0  0  0
  -37.2119   10.1286   -1.9576 O   0  0  0  0  0  0  0  0  0  0  0  0
  1  2  1  0
  1  3  1  0
  1 10  1  0
  3  4  1  0
  4  5  1  0
  5  6  1  0
  5  7  1  0
  7  8  2  0
  7  9  1  0
 10 11  1  0
 11 12  1  0
 11 13  1  0
 12 14  1  0
 13 15  1  0
 13 16  1  0
 14 15  1  0
 14 17  1  0
 15 27  1  0
 17 18  1  0
 17 19  1  0
 18 20  2  0
 18 21  1  0
 19 22  2  0
 20 23  1  0
 21 22  1  0
 21 24  2  0
 23 25  2  0
 24 25  1  0
 24 26  1  0
M  END
$$$$
