MODEL 1
REMARK VINA RESULT:   -11.193      0.000      0.000
REMARK INTER + INTRA:         -18.100
REMARK INTER:                 -16.904
REMARK INTRA:                  -1.196
REMARK UNBOUND:                -1.345
REMARK Flexibility Score: inf
REMARK Active torsions [ 10 ] -> [ 10 ]
ROOT
ATOM      1  C1  LIG L   1     -35.709  10.682  -4.238  1.00  0.00     0.063 C 
ATOM      2  N1  LIG L   1     -35.816   9.469  -4.674  1.00  0.00     0.221 N 
ATOM      3  H1  LIG L   1     -35.205   8.858  -4.132  1.00  0.00     0.200 HD
ATOM      4  H2  LIG L   1     -35.546   9.436  -5.657  1.00  0.00     0.200 HD
ATOM      5  H3  LIG L   1     -36.782   9.158  -4.577  1.00  0.00     0.200 HD
ENDROOT
BRANCH    1    6
ATOM      6  C2  LIG L   1     -36.006  10.634  -3.043  1.00  0.00     0.060 C 
BRANCH    6    7
ATOM      7  C3  LIG L   1     -36.722   9.525  -2.689  1.00  0.00     0.066 C 
BRANCH    7    8
ATOM      8  C4  LIG L   1     -37.710   9.789  -1.625  1.00  0.00     0.108 C 
ATOM      9  N2  LIG L   1     -37.431   9.270  -0.556  1.00  0.00     0.225 N 
ATOM     10  H4  LIG L   1     -37.401   8.256  -0.668  1.00  0.00     0.200 HD
ATOM     11  H5  LIG L   1     -38.141   9.514   0.135  1.00  0.00     0.200 HD
ATOM     12  H6  LIG L   1     -36.522   9.605  -0.242  1.00  0.00     0.200 HD
BRANCH    8   13
ATOM     13  C5  LIG L   1     -38.866   9.222  -1.981  1.00  0.00     0.089 C 
ATOM     14  O1  LIG L   1     -39.797   9.690  -1.654  1.00  0.00    -0.544 OA
ATOM     15  O2  LIG L   1     -38.797   8.452  -2.628  1.00  0.00    -0.544 O 
ENDBRANCH    8   13
ENDBRANCH    7    8
ENDBRANCH    6    7
ENDBRANCH    1    6
BRANCH    1   16
ATOM     16  C6  LIG L   1     -34.548  11.193  -4.380  1.00  0.00     0.088 C 
BRANCH   16   17
ATOM     17  C7  LIG L   1     -33.898  10.492  -5.284  1.00  0.00     0.157 C 
ATOM     18  O3  LIG L   1     -33.773  11.159  -6.183  1.00  0.00    -0.348 OA
ATOM     19  C8  LIG L   1     -32.747  10.259  -5.205  1.00  0.00     0.176 C 
ATOM     20  C9  LIG L   1     -32.878  10.722  -7.105  1.00  0.00     0.253 C 
ATOM     21 C10  LIG L   1     -32.343   9.987  -6.387  1.00  0.00     0.195 C 
BRANCH   19   22
ATOM     22  O4  LIG L   1     -32.563   9.354  -4.501  1.00  0.00    -0.387 OA
ATOM     23  H7  LIG L   1     -31.731   9.483  -4.018  1.00  0.00     0.210 HD
ENDBRANCH   19   22
BRANCH   20   24
ATOM     24  N3  LIG L   1     -32.335  11.810  -7.688  1.00  0.00    -0.286 N 
ATOM     25 C11  LIG L   1     -32.643  12.353  -8.667  1.00  0.00     0.167 A 
ATOM     26 C12  LIG L   1     -31.438  12.379  -7.272  1.00  0.00     0.203 A 
ATOM     27  N4  LIG L   1     -33.394  12.147  -9.378  1.00  0.00    -0.216 NA
ATOM     28 C13  LIG L   1     -31.889  13.254  -8.868  1.00  0.00     0.147 A 
ATOM     29  N5  LIG L   1     -31.136  13.292  -8.012  1.00  0.00    -0.231 NA
ATOM     30 C14  LIG L   1     -33.487  12.769 -10.378  1.00  0.00     0.225 A 
ATOM     31 C15  LIG L   1     -31.987  13.803  -9.750  1.00  0.00     0.147 A 
ATOM     32  N6  LIG L   1     -32.843  13.530 -10.522  1.00  0.00    -0.219 NA
BRANCH   31   33
ATOM     33  N7  LIG L   1     -31.228  14.503  -9.928  1.00  0.00    -0.341 N 
ATOM     34  H8  LIG L   1     -30.961  15.131  -9.219  1.00  0.00     0.144 HD
ATOM     35  H9  LIG L   1     -30.783  14.534 -10.805  1.00  0.00     0.144 HD
ENDBRANCH   31   33
ENDBRANCH   20   24
BRANCH   21   36
ATOM     36  O5  LIG L   1     -32.564   8.855  -6.539  1.00  0.00    -0.385 OA
ATOM     37 H10  LIG L   1     -31.839   8.447  -7.037  1.00  0.00     0.210 HD
ENDBRANCH   21   36
ENDBRANCH   16   17
ENDBRANCH    1   16
TORSDOF 10
ENDMDL
