examples/TrmD/1_docked.pdbqt
 OpenBabel01022516373D

 27 29  0  0  1  0  0  0  0  0999 V2000
  -35.7090   10.6820   -4.2380 C   0  0  1  0  0  3  0  0  0  0  0  0
  -35.8160    9.4690   -4.6740 N   0  0  0  0  0  4  0  0  0  0  0  0
  -36.0060   10.6340   -3.0430 C   0  0  0  0  0  2  0  0  0  0  0  0
  -36.7220    9.5250   -2.6890 C   0  0  0  0  0  2  0  0  0  0  0  0
  -37.7100    9.7890   -1.6250 C   0  0  2  0  0  3  0  0  0  0  0  0
  -37.4310    9.2700   -0.5560 N   0  0  0  0  0  4  0  0  0  0  0  0
  -38.8660    9.2220   -1.9810 C   0  0  0  0  0  0  0  0  0  0  0  0
  -39.7970    9.6900   -1.6540 O   0  0  0  0  0  1  0  0  0  0  0  0
  -38.7970    8.4520   -2.6280 O   0  0  0  0  0  0  0  0  0  0  0  0
  -34.5480   11.1930   -4.3800 C   0  0  0  0  0  2  0  0  0  0  0  0
  -33.8980   10.4920   -5.2840 C   0  0  1  0  0  3  0  0  0  0  0  0
  -33.7730   11.1590   -6.1830 O   0  0  0  0  0  0  0  0  0  0  0  0
  -32.7470   10.2590   -5.2050 C   0  0  2  0  0  3  0  0  0  0  0  0
  -32.8780   10.7220   -7.1050 C   0  0  2  0  0  3  0  0  0  0  0  0
  -32.3430    9.9870   -6.3870 C   0  0  2  0  0  3  0  0  0  0  0  0
  -32.5630    9.3540   -4.5010 O   0  0  0  0  0  0  0  0  0  0  0  0
  -32.3350   11.8100   -7.6880 N   0  0  0  0  0  0  0  0  0  0  0  0
  -32.6430   12.3530   -8.6670 C   0  0  0  0  0  0  0  0  0  0  0  0
  -31.4380   12.3790   -7.2720 C   0  0  0  0  0  3  0  0  0  0  0  0
  -33.3940   12.1470   -9.3780 N   0  0  0  0  0  0  0  0  0  0  0  0
  -31.8890   13.2540   -8.8680 C   0  0  0  0  0  0  0  0  0  0  0  0
  -31.1360   13.2920   -8.0120 N   0  0  0  0  0  0  0  0  0  0  0  0
  -33.4870   12.7690  -10.3780 C   0  0  0  0  0  3  0  0  0  0  0  0
  -31.9870   13.8030   -9.7500 C   0  0  0  0  0  0  0  0  0  0  0  0
  -32.8430   13.5300  -10.5220 N   0  0  0  0  0  0  0  0  0  0  0  0
  -31.2280   14.5030   -9.9280 N   0  0  0  0  0  0  0  0  0  0  0  0
  -32.5640    8.8550   -6.5390 O   0  0  0  0  0  0  0  0  0  0  0  0
  1  2  1  1  0  0  0
  1  3  1  0  0  0  0
  3  4  1  0  0  0  0
  4  5  1  0  0  0  0
  5  6  1  1  0  0  0
  7  8  1  0  0  0  0
  7  5  1  0  0  0  0
  9  7  2  0  0  0  0
 10  1  1  0  0  0  0
 11 13  1  0  0  0  0
 11 10  1  1  0  0  0
 12 11  1  0  0  0  0
 13 16  1  1  0  0  0
 14 17  1  1  0  0  0
 14 15  1  0  0  0  0
 14 12  1  0  0  0  0
 15 27  1  6  0  0  0
 15 13  1  0  0  0  0
 17 19  1  0  0  0  0
 18 17  1  0  0  0  0
 20 18  2  0  0  0  0
 21 18  1  0  0  0  0
 21 22  1  0  0  0  0
 22 19  2  0  0  0  0
 23 20  1  0  0  0  0
 24 21  2  0  0  0  0
 25 23  2  0  0  0  0
 25 24  1  0  0  0  0
 26 24  1  0  0  0  0
M  END
>  <MODEL>
1

>  <REMARK>
 VINA RESULT:   -11.193      0.000      0.000
 INTER + INTRA:         -18.100
 INTER:                 -16.904
 INTRA:                  -1.196
 UNBOUND:                -1.345
 Flexibility Score: inf
 Active torsions [ 10 ] -> [ 10 ]

>  <TORSDO>
F 10

$$$$
