
     RDKit          3D

 27 29  0  0  0  0  0  0  0  0999 V2000
  -33.7725    8.0751   -0.2163 C   0  0  0  0  0  0  0  0  0  0  0  0
  -32.6830    7.7997    0.4164 N   0  0  0  0  0  0  0  0  0  0  0  0
  -34.4526    7.0072   -0.2769 C   0  0  0  0  0  0  0  0  0  0  0  0
  -33.9166    5.9863   -0.9890 C   0  0  0  0  0  0  0  0  0  0  0  0
  -34.5799    4.7093   -0.8282 C   0  0  0  0  0  0  0  0  0  0  0  0
  -34.1302    4.0862    0.0583 N   0  0  0  0  0  0  0  0  0  0  0  0
  -34.3809    3.9744   -1.8644 C   0  0  0  0  0  0  0  0  0  0  0  0
  -35.2552    3.7231   -2.5076 O   0  0  0  0  0  0  0  0  0  0  0  0
  -33.4181    3.7727   -2.0318 O   0  0  0  0  0  0  0  0  0  0  0  0
  -34.4308    9.0203    0.3188 C   0  0  0  0  0  0  0  0  0  0  0  0
  -35.2267    9.4755   -0.6116 C   0  0  0  0  0  0  0  0  0  0  0  0
  -34.6238    9.7708   -1.4713 O   0  0  0  0  0  0  0  0  0  0  0  0
  -35.9741    8.7681   -1.2364 C   0  0  0  0  0  0  0  0  0  0  0  0
  -35.3322   10.0165   -2.6336 C   0  0  0  0  0  0  0  0  0  0  0  0
  -36.3118    9.4552   -2.3205 C   0  0  0  0  0  0  0  0  0  0  0  0
  -36.9237    8.5155   -0.6788 O   0  0  0  0  0  0  0  0  0  0  0  0
  -34.5484    9.7055   -3.6206 N   0  0  0  0  0  0  0  0  0  0  0  0
  -34.7092    9.8989   -4.7653 C   0  0  0  0  0  0  0  0  0  0  0  0
  -33.5389    9.1851   -3.5079 C   0  0  0  0  0  0  0  0  0  0  0  0
  -35.4998   10.3111   -5.3233 N   0  0  0  0  0  0  0  0  0  0  0  0
  -33.7872    9.4641   -5.3684 C   0  0  0  0  0  0  0  0  0  0  0  0
  -33.0355    9.0138   -4.5809 N   0  0  0  0  0  0  0  0  0  0  0  0
  -35.5062   10.2898   -6.5089 C   0  0  0  0  0  0  0  0  0  0  0  0
  -33.7985    9.4814   -6.4613 C   0  0  0  0  0  0  0  0  0  0  0  0
  -34.7057    9.9004   -7.0350 N   0  0  0  0  0  0  0  0  0  0  0  0
  -33.0143    8.9862   -6.9214 N   0  0  0  0  0  0  0  0  0  0  0  0
  -37.2419   10.1136   -2.0227 O   0  0  0  0  0  0  0  0  0  0  0  0
  1  2  1  0
  1  3  1  0
  1 10  1  0
  3  4  1  0
  4  5  1  0
  5  6  1  0
  5  7  1  0
  7  8  2  0
  7  9  1  0
 10 11  1  0
 11 12  1  0
 11 13  1  0
 12 14  1  0
 13 15  1  0
 13 16  1  0
 14 15  1  0
 14 17  1  0
 15 27  1  0
 17 18  1  0
 17 19  1  0
 18 20  2  0
 18 21  1  0
 19 22  2  0
 20 23  1  0
 21 22  1  0
 21 24  2  0
 23 25  2  0
 24 25  1  0
 24 26  1  0
M  END
$$$$
