MODEL 1
REMARK VINA RESULT:   -11.389      0.000      0.000
REMARK INTER + INTRA:         -18.133
REMARK INTER:                 -16.998
REMARK INTRA:                  -1.135
REMARK UNBOUND:                -1.085
REMARK Flexibility Score: inf
REMARK Active torsions [ 10 ] -> [ 10 ]
ROOT
ATOM      1  C1  LIG L   1     -32.767   9.605  -1.639  1.00  0.00     0.063 C 
ATOM      2  N1  LIG L   1     -33.918  10.054  -1.271  1.00  0.00     0.221 N 
ATOM      3  H1  LIG L   1     -34.584   9.283  -1.223  1.00  0.00     0.200 HD
ATOM      4  H2  LIG L   1     -34.246  10.744  -1.947  1.00  0.00     0.200 HD
ATOM      5  H3  LIG L   1     -33.835  10.489  -0.353  1.00  0.00     0.200 HD
ENDROOT
BRANCH    1    6
ATOM      6  C2  LIG L   1     -32.402   8.751  -0.776  1.00  0.00     0.060 C 
BRANCH    6    7
ATOM      7  C3  LIG L   1     -33.138   8.684   0.360  1.00  0.00     0.066 C 
BRANCH    7    8
ATOM      8  C4  LIG L   1     -32.386   8.397   1.564  1.00  0.00     0.108 C 
ATOM      9  N2  LIG L   1     -31.272   8.113   1.332  1.00  0.00     0.225 N 
ATOM     10  H4  LIG L   1     -31.247   7.267   0.762  1.00  0.00     0.200 HD
ATOM     11  H5  LIG L   1     -30.775   7.948   2.207  1.00  0.00     0.200 HD
ATOM     12  H6  LIG L   1     -30.825   8.877   0.826  1.00  0.00     0.200 HD
BRANCH    8   13
ATOM     13  C5  LIG L   1     -32.864   7.354   2.145  1.00  0.00     0.089 C 
ATOM     14  O1  LIG L   1     -33.933   7.368   2.458  1.00  0.00    -0.544 OA
ATOM     15  O2  LIG L   1     -32.226   6.587   2.175  1.00  0.00    -0.544 O 
ENDBRANCH    8   13
ENDBRANCH    7    8
ENDBRANCH    6    7
ENDBRANCH    1    6
BRANCH    1   16
ATOM     16  C6  LIG L   1     -32.778   9.112  -2.810  1.00  0.00     0.088 C 
BRANCH   16   17
ATOM     17  C7  LIG L   1     -33.683   9.782  -3.474  1.00  0.00     0.157 C 
ATOM     18  O3  LIG L   1     -33.178  10.490  -4.131  1.00  0.00    -0.348 OA
ATOM     19  C8  LIG L   1     -34.357   9.286  -4.339  1.00  0.00     0.176 C 
ATOM     20  C9  LIG L   1     -33.980  11.079  -5.093  1.00  0.00     0.253 C 
ATOM     21 C10  LIG L   1     -34.851  10.296  -5.044  1.00  0.00     0.195 C 
BRANCH   19   22
ATOM     22  O4  LIG L   1     -35.228   8.687  -3.940  1.00  0.00    -0.387 OA
ATOM     23  H7  LIG L   1     -35.013   7.742  -3.972  1.00  0.00     0.210 HD
ENDBRANCH   19   22
BRANCH   20   24
ATOM     24  N3  LIG L   1     -33.218  11.321  -6.117  1.00  0.00    -0.286 N 
ATOM     25 C11  LIG L   1     -32.578  12.277  -6.335  1.00  0.00     0.167 A 
ATOM     26 C12  LIG L   1     -33.047  10.598  -6.982  1.00  0.00     0.203 A 
ATOM     27  N4  LIG L   1     -32.461  13.197  -5.837  1.00  0.00    -0.216 NA
ATOM     28 C13  LIG L   1     -32.021  12.146  -7.372  1.00  0.00     0.147 A 
ATOM     29  N5  LIG L   1     -32.306  11.082  -7.789  1.00  0.00    -0.231 NA
ATOM     30 C14  LIG L   1     -31.849  14.094  -6.315  1.00  0.00     0.225 A 
ATOM     31 C15  LIG L   1     -31.438  12.975  -7.782  1.00  0.00     0.147 A 
ATOM     32  N6  LIG L   1     -31.373  13.982  -7.226  1.00  0.00    -0.219 NA
BRANCH   31   33
ATOM     33  N7  LIG L   1     -31.072  12.829  -8.739  1.00  0.00    -0.341 N 
ATOM     34  H8  LIG L   1     -31.666  12.491  -9.447  1.00  0.00     0.144 HD
ATOM     35  H9  LIG L   1     -30.129  13.029  -8.942  1.00  0.00     0.144 HD
ENDBRANCH   31   33
ENDBRANCH   20   24
BRANCH   21   36
ATOM     36  O5  LIG L   1     -35.846  10.625  -4.507  1.00  0.00    -0.385 OA
ATOM     37 H10  LIG L   1     -36.301  11.288  -5.050  1.00  0.00     0.210 HD
ENDBRANCH   21   36
ENDBRANCH   16   17
ENDBRANCH    1   16
TORSDOF 10
ENDMDL
