examples/TrmD/2_docked.pdbqt
 OpenBabel01022516373D

 27 29  0  0  1  0  0  0  0  0999 V2000
  -32.7670    9.6050   -1.6390 C   0  0  1  0  0  3  0  0  0  0  0  0
  -33.9180   10.0540   -1.2710 N   0  0  0  0  0  4  0  0  0  0  0  0
  -32.4020    8.7510   -0.7760 C   0  0  0  0  0  2  0  0  0  0  0  0
  -33.1380    8.6840    0.3600 C   0  0  0  0  0  2  0  0  0  0  0  0
  -32.3860    8.3970    1.5640 C   0  0  2  0  0  3  0  0  0  0  0  0
  -31.2720    8.1130    1.3320 N   0  0  0  0  0  4  0  0  0  0  0  0
  -32.8640    7.3540    2.1450 C   0  0  0  0  0  0  0  0  0  0  0  0
  -33.9330    7.3680    2.4580 O   0  0  0  0  0  1  0  0  0  0  0  0
  -32.2260    6.5870    2.1750 O   0  0  0  0  0  0  0  0  0  0  0  0
  -32.7780    9.1120   -2.8100 C   0  0  0  0  0  2  0  0  0  0  0  0
  -33.6830    9.7820   -3.4740 C   0  0  1  0  0  3  0  0  0  0  0  0
  -33.1780   10.4900   -4.1310 O   0  0  0  0  0  0  0  0  0  0  0  0
  -34.3570    9.2860   -4.3390 C   0  0  2  0  0  3  0  0  0  0  0  0
  -33.9800   11.0790   -5.0930 C   0  0  2  0  0  3  0  0  0  0  0  0
  -34.8510   10.2960   -5.0440 C   0  0  2  0  0  3  0  0  0  0  0  0
  -35.2280    8.6870   -3.9400 O   0  0  0  0  0  0  0  0  0  0  0  0
  -33.2180   11.3210   -6.1170 N   0  0  0  0  0  0  0  0  0  0  0  0
  -32.5780   12.2770   -6.3350 C   0  0  0  0  0  0  0  0  0  0  0  0
  -33.0470   10.5980   -6.9820 C   0  0  0  0  0  3  0  0  0  0  0  0
  -32.4610   13.1970   -5.8370 N   0  0  0  0  0  0  0  0  0  0  0  0
  -32.0210   12.1460   -7.3720 C   0  0  0  0  0  0  0  0  0  0  0  0
  -32.3060   11.0820   -7.7890 N   0  0  0  0  0  0  0  0  0  0  0  0
  -31.8490   14.0940   -6.3150 C   0  0  0  0  0  3  0  0  0  0  0  0
  -31.4380   12.9750   -7.7820 C   0  0  0  0  0  0  0  0  0  0  0  0
  -31.3730   13.9820   -7.2260 N   0  0  0  0  0  0  0  0  0  0  0  0
  -31.0720   12.8290   -8.7390 N   0  0  0  0  0  0  0  0  0  0  0  0
  -35.8460   10.6250   -4.5070 O   0  0  0  0  0  0  0  0  0  0  0  0
  1  2  1  1  0  0  0
  1  3  1  0  0  0  0
  3  4  1  0  0  0  0
  4  5  1  0  0  0  0
  5  6  1  6  0  0  0
  5  7  1  0  0  0  0
  7  9  2  0  0  0  0
  7  8  1  0  0  0  0
 10  1  1  0  0  0  0
 11 10  1  6  0  0  0
 12 11  1  0  0  0  0
 13 16  1  1  0  0  0
 13 11  1  0  0  0  0
 14 17  1  6  0  0  0
 14 15  1  0  0  0  0
 14 12  1  0  0  0  0
 15 27  1  1  0  0  0
 15 13  1  0  0  0  0
 18 17  1  0  0  0  0
 18 20  1  0  0  0  0
 19 17  1  0  0  0  0
 21 18  2  0  0  0  0
 22 21  1  0  0  0  0
 22 19  2  0  0  0  0
 23 20  2  0  0  0  0
 24 21  1  0  0  0  0
 24 25  2  0  0  0  0
 25 23  1  0  0  0  0
 26 24  1  0  0  0  0
M  END
>  <MODEL>
1

>  <REMARK>
 VINA RESULT:   -11.389      0.000      0.000
 INTER + INTRA:         -18.133
 INTER:                 -16.998
 INTRA:                  -1.135
 UNBOUND:                -1.085
 Flexibility Score: inf
 Active torsions [ 10 ] -> [ 10 ]

>  <TORSDO>
F 10

$$$$
