
     RDKit          3D

 27 29  0  0  0  0  0  0  0  0999 V2000
  -33.7687    8.1025   -0.1901 C   0  0  0  0  0  0  0  0  0  0  0  0
  -32.6904    7.7837    0.4128 N   0  0  0  0  0  0  0  0  0  0  0  0
  -34.4265    7.0310   -0.2538 C   0  0  0  0  0  0  0  0  0  0  0  0
  -33.9046    5.9724   -0.9851 C   0  0  0  0  0  0  0  0  0  0  0  0
  -34.5770    4.6927   -0.8674 C   0  0  0  0  0  0  0  0  0  0  0  0
  -34.1036    4.0648    0.0542 N   0  0  0  0  0  0  0  0  0  0  0  0
  -34.3835    3.9532   -1.8782 C   0  0  0  0  0  0  0  0  0  0  0  0
  -35.2495    3.7034   -2.5165 O   0  0  0  0  0  0  0  0  0  0  0  0
  -33.4406    3.7652   -2.0949 O   0  0  0  0  0  0  0  0  0  0  0  0
  -34.4489    9.0219    0.3059 C   0  0  0  0  0  0  0  0  0  0  0  0
  -35.2609    9.4964   -0.5800 C   0  0  0  0  0  0  0  0  0  0  0  0
  -34.6443    9.8070   -1.4488 O   0  0  0  0  0  0  0  0  0  0  0  0
  -36.0121    8.8100   -1.1960 C   0  0  0  0  0  0  0  0  0  0  0  0
  -35.3469   10.0523   -2.6001 C   0  0  0  0  0  0  0  0  0  0  0  0
  -36.3274    9.4814   -2.2600 C   0  0  0  0  0  0  0  0  0  0  0  0
  -36.9436    8.5496   -0.6506 O   0  0  0  0  0  0  0  0  0  0  0  0
  -34.5451    9.7746   -3.6076 N   0  0  0  0  0  0  0  0  0  0  0  0
  -34.7122    9.9578   -4.7736 C   0  0  0  0  0  0  0  0  0  0  0  0
  -33.5270    9.2390   -3.4869 C   0  0  0  0  0  0  0  0  0  0  0  0
  -35.5091   10.3443   -5.3142 N   0  0  0  0  0  0  0  0  0  0  0  0
  -33.7786    9.4926   -5.3926 C   0  0  0  0  0  0  0  0  0  0  0  0
  -33.0259    9.0176   -4.5958 N   0  0  0  0  0  0  0  0  0  0  0  0
  -35.5181   10.3150   -6.5183 C   0  0  0  0  0  0  0  0  0  0  0  0
  -33.7939    9.4845   -6.4882 C   0  0  0  0  0  0  0  0  0  0  0  0
  -34.7157    9.9123   -7.0538 N   0  0  0  0  0  0  0  0  0  0  0  0
  -32.9995    8.9964   -6.9502 N   0  0  0  0  0  0  0  0  0  0  0  0
  -37.2327   10.1228   -1.9571 O   0  0  0  0  0  0  0  0  0  0  0  0
  1  2  1  0
  1  3  1  0
  1 10  1  0
  3  4  1  0
  4  5  1  0
  5  6  1  0
  5  7  1  0
  7  8  2  0
  7  9  1  0
 10 11  1  0
 11 12  1  0
 11 13  1  0
 12 14  1  0
 13 15  1  0
 13 16  1  0
 14 15  1  0
 14 17  1  0
 15 27  1  0
 17 18  1  0
 17 19  1  0
 18 20  2  0
 18 21  1  0
 19 22  2  0
 20 23  1  0
 21 22  1  0
 21 24  2  0
 23 25  2  0
 24 25  1  0
 24 26  1  0
M  END
$$$$
