examples/TrmD/3_docked.pdbqt
 OpenBabel01022516373D

 27 29  0  0  1  0  0  0  0  0999 V2000
  -33.0390    9.4380   -4.4100 C   0  0  1  0  0  3  0  0  0  0  0  0
  -33.2950   10.6700   -4.1940 N   0  0  0  0  0  4  0  0  0  0  0  0
  -32.2330    9.4450   -5.3760 C   0  0  0  0  0  2  0  0  0  0  0  0
  -32.6290    8.8730   -6.5780 C   0  0  0  0  0  2  0  0  0  0  0  0
  -33.6710    9.5520   -7.3220 C   0  0  2  0  0  3  0  0  0  0  0  0
  -34.4980    8.7500   -7.6940 N   0  0  0  0  0  4  0  0  0  0  0  0
  -33.2360   10.0680   -8.3960 C   0  0  0  0  0  0  0  0  0  0  0  0
  -32.4760    9.5100   -8.9720 O   0  0  0  0  0  0  0  0  0  0  0  0
  -33.7120   10.8720   -8.7060 O   0  0  0  0  0  1  0  0  0  0  0  0
  -32.5940    8.7730   -3.4540 C   0  0  0  0  0  2  0  0  0  0  0  0
  -33.2110    9.0980   -2.3660 C   0  0  1  0  0  3  0  0  0  0  0  0
  -34.2360    8.6770   -2.4390 O   0  0  0  0  0  0  0  0  0  0  0  0
  -32.9510    8.6160   -1.3110 C   0  0  2  0  0  3  0  0  0  0  0  0
  -34.9390    8.6560   -1.2620 C   0  0  2  0  0  3  0  0  0  0  0  0
  -33.9940    8.7960   -0.5620 C   0  0  2  0  0  3  0  0  0  0  0  0
  -32.0700    9.0690   -0.8080 O   0  0  0  0  0  0  0  0  0  0  0  0
  -35.7680    7.6340   -1.3260 N   0  0  0  0  0  0  0  0  0  0  0  0
  -36.9160    7.6170   -1.6470 C   0  0  0  0  0  0  0  0  0  0  0  0
  -35.4820    6.5580   -1.0120 C   0  0  0  0  0  3  0  0  0  0  0  0
  -37.5750    8.3660   -1.9290 N   0  0  0  0  0  0  0  0  0  0  0  0
  -37.3590    6.4980   -1.4980 C   0  0  0  0  0  0  0  0  0  0  0  0
  -36.4700    5.8170   -1.0800 N   0  0  0  0  0  0  0  0  0  0  0  0
  -38.7470    8.1390   -2.0860 C   0  0  0  0  0  3  0  0  0  0  0  0
  -38.4250    6.3020   -1.6550 C   0  0  0  0  0  0  0  0  0  0  0  0
  -39.1320    7.1760   -1.9550 N   0  0  0  0  0  0  0  0  0  0  0  0
  -38.7490    5.3400   -1.4290 N   0  0  0  0  0  0  0  0  0  0  0  0
  -33.8450    9.8290   -0.0770 O   0  0  0  0  0  0  0  0  0  0  0  0
  1  2  1  1  0  0  0
  1 10  1  0  0  0  0
  3  1  1  0  0  0  0
  4  3  1  0  0  0  0
  5  6  1  6  0  0  0
  5  4  1  0  0  0  0
  7  5  1  0  0  0  0
  8  7  2  0  0  0  0
  9  7  1  0  0  0  0
 11 10  1  6  0  0  0
 11 13  1  0  0  0  0
 12 11  1  0  0  0  0
 12 14  1  0  0  0  0
 13 16  1  1  0  0  0
 13 15  1  0  0  0  0
 14 17  1  1  0  0  0
 14 15  1  0  0  0  0
 15 27  1  6  0  0  0
 17 19  1  0  0  0  0
 18 21  1  0  0  0  0
 18 17  1  0  0  0  0
 20 18  2  0  0  0  0
 21 22  1  0  0  0  0
 22 19  2  0  0  0  0
 23 25  2  0  0  0  0
 23 20  1  0  0  0  0
 24 21  2  0  0  0  0
 24 26  1  0  0  0  0
 25 24  1  0  0  0  0
M  END
>  <MODEL>
1

>  <REMARK>
 VINA RESULT:   -11.918      0.000      0.000
 INTER + INTRA:         -18.361
 INTER:                 -17.167
 INTRA:                  -1.194
 UNBOUND:                -0.520
 Flexibility Score: inf
 Active torsions [ 10 ] -> [ 10 ]

>  <TORSDO>
F 10

$$$$
