MODEL 1
REMARK VINA RESULT:   -11.918      0.000      0.000
REMARK INTER + INTRA:         -18.361
REMARK INTER:                 -17.167
REMARK INTRA:                  -1.194
REMARK UNBOUND:                -0.520
REMARK Flexibility Score: inf
REMARK Active torsions [ 10 ] -> [ 10 ]
ROOT
ATOM      1  C1  LIG L   1     -33.039   9.438  -4.410  1.00  0.00     0.063 C 
ATOM      2  N1  LIG L   1     -33.295  10.670  -4.194  1.00  0.00     0.221 N 
ATOM      3  H1  LIG L   1     -32.426  11.169  -4.007  1.00  0.00     0.200 HD
ATOM      4  H2  LIG L   1     -33.915  10.752  -3.388  1.00  0.00     0.200 HD
ATOM      5  H3  LIG L   1     -33.748  11.071  -5.014  1.00  0.00     0.200 HD
ENDROOT
BRANCH    1    6
ATOM      6  C2  LIG L   1     -32.233   9.445  -5.376  1.00  0.00     0.060 C 
BRANCH    6    7
ATOM      7  C3  LIG L   1     -32.629   8.873  -6.578  1.00  0.00     0.066 C 
BRANCH    7    8
ATOM      8  C4  LIG L   1     -33.671   9.552  -7.322  1.00  0.00     0.108 C 
ATOM      9  N2  LIG L   1     -34.498   8.750  -7.694  1.00  0.00     0.225 N 
ATOM     10  H4  LIG L   1     -34.059   8.071  -8.316  1.00  0.00     0.200 HD
ATOM     11  H5  LIG L   1     -35.243   9.235  -8.193  1.00  0.00     0.200 HD
ATOM     12  H6  LIG L   1     -34.890   8.266  -6.886  1.00  0.00     0.200 HD
BRANCH    8   13
ATOM     13  C5  LIG L   1     -33.236  10.068  -8.396  1.00  0.00     0.089 C 
ATOM     14  O1  LIG L   1     -32.476   9.510  -8.972  1.00  0.00    -0.544 OA
ATOM     15  O2  LIG L   1     -33.712  10.872  -8.706  1.00  0.00    -0.544 O 
ENDBRANCH    8   13
ENDBRANCH    7    8
ENDBRANCH    6    7
ENDBRANCH    1    6
BRANCH    1   16
ATOM     16  C6  LIG L   1     -32.594   8.773  -3.454  1.00  0.00     0.088 C 
BRANCH   16   17
ATOM     17  C7  LIG L   1     -33.211   9.098  -2.366  1.00  0.00     0.157 C 
ATOM     18  O3  LIG L   1     -34.236   8.677  -2.439  1.00  0.00    -0.348 OA
ATOM     19  C8  LIG L   1     -32.951   8.616  -1.311  1.00  0.00     0.176 C 
ATOM     20  C9  LIG L   1     -34.939   8.656  -1.262  1.00  0.00     0.253 C 
ATOM     21 C10  LIG L   1     -33.994   8.796  -0.562  1.00  0.00     0.195 C 
BRANCH   19   22
ATOM     22  O4  LIG L   1     -32.070   9.069  -0.808  1.00  0.00    -0.387 OA
ATOM     23  H7  LIG L   1     -32.290   9.968  -0.518  1.00  0.00     0.210 HD
ENDBRANCH   19   22
BRANCH   20   24
ATOM     24  N3  LIG L   1     -35.768   7.634  -1.326  1.00  0.00    -0.286 N 
ATOM     25 C11  LIG L   1     -36.916   7.617  -1.647  1.00  0.00     0.167 A 
ATOM     26 C12  LIG L   1     -35.482   6.558  -1.012  1.00  0.00     0.203 A 
ATOM     27  N4  LIG L   1     -37.575   8.366  -1.929  1.00  0.00    -0.216 NA
ATOM     28 C13  LIG L   1     -37.359   6.498  -1.498  1.00  0.00     0.147 A 
ATOM     29  N5  LIG L   1     -36.470   5.817  -1.080  1.00  0.00    -0.231 NA
ATOM     30 C14  LIG L   1     -38.747   8.139  -2.086  1.00  0.00     0.225 A 
ATOM     31 C15  LIG L   1     -38.425   6.302  -1.655  1.00  0.00     0.147 A 
ATOM     32  N6  LIG L   1     -39.132   7.176  -1.955  1.00  0.00    -0.219 NA
BRANCH   31   33
ATOM     33  N7  LIG L   1     -38.749   5.340  -1.429  1.00  0.00    -0.341 N 
ATOM     34  H8  LIG L   1     -38.207   4.762  -0.846  1.00  0.00     0.144 HD
ATOM     35  H9  LIG L   1     -39.598   5.007  -1.800  1.00  0.00     0.144 HD
ENDBRANCH   31   33
ENDBRANCH   20   24
BRANCH   21   36
ATOM     36  O5  LIG L   1     -33.845   9.829  -0.077  1.00  0.00    -0.385 OA
ATOM     37 H10  LIG L   1     -32.919  10.099  -0.169  1.00  0.00     0.210 HD
ENDBRANCH   21   36
ENDBRANCH   16   17
ENDBRANCH    1   16
TORSDOF 10
ENDMDL
