
     RDKit          3D

 27 29  0  0  0  0  0  0  0  0999 V2000
  -33.7754    8.0894   -0.1960 C   0  0  0  0  0  0  0  0  0  0  0  0
  -32.6910    7.8036    0.4216 N   0  0  0  0  0  0  0  0  0  0  0  0
  -34.4524    7.0058   -0.2620 C   0  0  0  0  0  0  0  0  0  0  0  0
  -33.9275    5.9679   -0.9746 C   0  0  0  0  0  0  0  0  0  0  0  0
  -34.5936    4.7116   -0.8631 C   0  0  0  0  0  0  0  0  0  0  0  0
  -34.1422    4.0929    0.0449 N   0  0  0  0  0  0  0  0  0  0  0  0
  -34.3956    3.9665   -1.8471 C   0  0  0  0  0  0  0  0  0  0  0  0
  -35.2666    3.7195   -2.4958 O   0  0  0  0  0  0  0  0  0  0  0  0
  -33.4264    3.7666   -2.0484 O   0  0  0  0  0  0  0  0  0  0  0  0
  -34.4404    9.0317    0.3173 C   0  0  0  0  0  0  0  0  0  0  0  0
  -35.2450    9.5061   -0.5987 C   0  0  0  0  0  0  0  0  0  0  0  0
  -34.6404    9.7906   -1.4665 O   0  0  0  0  0  0  0  0  0  0  0  0
  -35.9835    8.8068   -1.2047 C   0  0  0  0  0  0  0  0  0  0  0  0
  -35.3513   10.0538   -2.6146 C   0  0  0  0  0  0  0  0  0  0  0  0
  -36.3010    9.4938   -2.2770 C   0  0  0  0  0  0  0  0  0  0  0  0
  -36.9416    8.5327   -0.6427 O   0  0  0  0  0  0  0  0  0  0  0  0
  -34.5407    9.7611   -3.6081 N   0  0  0  0  0  0  0  0  0  0  0  0
  -34.7032    9.9501   -4.7868 C   0  0  0  0  0  0  0  0  0  0  0  0
  -33.5115    9.2162   -3.4967 C   0  0  0  0  0  0  0  0  0  0  0  0
  -35.5249   10.3416   -5.3402 N   0  0  0  0  0  0  0  0  0  0  0  0
  -33.7684    9.4994   -5.3971 C   0  0  0  0  0  0  0  0  0  0  0  0
  -33.0251    9.0325   -4.6014 N   0  0  0  0  0  0  0  0  0  0  0  0
  -35.5258   10.2944   -6.5121 C   0  0  0  0  0  0  0  0  0  0  0  0
  -33.8024    9.4911   -6.4605 C   0  0  0  0  0  0  0  0  0  0  0  0
  -34.7174    9.9120   -7.0165 N   0  0  0  0  0  0  0  0  0  0  0  0
  -33.0012    8.9385   -6.9107 N   0  0  0  0  0  0  0  0  0  0  0  0
  -37.1805   10.1417   -1.9888 O   0  0  0  0  0  0  0  0  0  0  0  0
  1  2  1  0
  1  3  1  0
  1 10  1  0
  3  4  1  0
  4  5  1  0
  5  6  1  0
  5  7  1  0
  7  8  2  0
  7  9  1  0
 10 11  1  0
 11 12  1  0
 11 13  1  0
 12 14  1  0
 13 15  1  0
 13 16  1  0
 14 15  1  0
 14 17  1  0
 15 27  1  0
 17 18  1  0
 17 19  1  0
 18 20  2  0
 18 21  1  0
 19 22  2  0
 20 23  1  0
 21 22  1  0
 21 24  2  0
 23 25  2  0
 24 25  1  0
 24 26  1  0
M  END
$$$$
