MODEL 1
REMARK VINA RESULT:   -10.760      0.000      0.000
REMARK INTER + INTRA:         -12.775
REMARK INTER:                 -12.480
REMARK INTRA:                  -0.295
REMARK UNBOUND:                 3.332
REMARK Flexibility Score: inf
REMARK Active torsions [ 10 ] -> [ 10 ]
ROOT
ATOM      1  C1  LIG L   1     -33.223   6.729  -0.511  1.00  0.00     0.063 C 
ATOM      2  N1  LIG L   1     -32.001   6.378  -0.370  1.00  0.00     0.221 N 
ATOM      3  H1  LIG L   1     -31.881   5.916   0.532  1.00  0.00     0.200 HD
ATOM      4  H2  LIG L   1     -31.403   7.202  -0.412  1.00  0.00     0.200 HD
ATOM      5  H3  LIG L   1     -31.744   5.734  -1.118  1.00  0.00     0.200 HD
ENDROOT
BRANCH    1    6
ATOM      6  C2  LIG L   1     -33.921   5.660  -0.435  1.00  0.00     0.060 C 
BRANCH    6    7
ATOM      7  C3  LIG L   1     -33.334   4.487  -0.809  1.00  0.00     0.066 C 
BRANCH    7    8
ATOM      8  C4  LIG L   1     -34.204   3.442  -1.238  1.00  0.00     0.108 C 
ATOM      9  N2  LIG L   1     -35.284   3.596  -0.767  1.00  0.00     0.225 N 
ATOM     10  H4  LIG L   1     -35.222   3.545   0.250  1.00  0.00     0.200 HD
ATOM     11  H5  LIG L   1     -35.910   2.865  -1.106  1.00  0.00     0.200 HD
ATOM     12  H6  LIG L   1     -35.648   4.508  -1.040  1.00  0.00     0.200 HD
BRANCH    8   13
ATOM     13  C5  LIG L   1     -33.861   2.318  -0.812  1.00  0.00     0.089 C 
ATOM     14  O1  LIG L   1     -32.773   2.123  -0.678  1.00  0.00    -0.544 OA
ATOM     15  O2  LIG L   1     -34.617   1.729  -0.492  1.00  0.00    -0.544 O 
ENDBRANCH    8   13
ENDBRANCH    7    8
ENDBRANCH    6    7
ENDBRANCH    1    6
BRANCH    1   16
ATOM     16  C6  LIG L   1     -33.615   7.608   0.307  1.00  0.00     0.088 C 
BRANCH   16   17
ATOM     17  C7  LIG L   1     -34.461   8.391  -0.312  1.00  0.00     0.157 C 
ATOM     18  O3  LIG L   1     -35.271   7.768  -0.708  1.00  0.00    -0.348 OA
ATOM     19  C8  LIG L   1     -35.171   9.134   0.275  1.00  0.00     0.176 C 
ATOM     20  C9  LIG L   1     -36.376   8.457  -1.151  1.00  0.00     0.253 C 
ATOM     21 C10  LIG L   1     -36.135   9.422  -0.568  1.00  0.00     0.195 C 
BRANCH   19   22
ATOM     22  O4  LIG L   1     -34.666  10.105   0.607  1.00  0.00    -0.387 OA
ATOM     23  H7  LIG L   1     -35.334  10.709   0.969  1.00  0.00     0.210 HD
ENDBRANCH   19   22
BRANCH   20   24
ATOM     24  N3  LIG L   1     -37.392   7.638  -0.989  1.00  0.00    -0.286 N 
ATOM     25 C11  LIG L   1     -37.547   6.537  -1.451  1.00  0.00     0.167 A 
ATOM     26 C12  LIG L   1     -38.358   7.880  -0.375  1.00  0.00     0.203 A 
ATOM     27  N4  LIG L   1     -36.961   5.959  -2.128  1.00  0.00    -0.216 NA
ATOM     28 C13  LIG L   1     -38.626   6.114  -1.126  1.00  0.00     0.147 A 
ATOM     29  N5  LIG L   1     -39.141   6.948  -0.461  1.00  0.00    -0.231 NA
ATOM     30 C14  LIG L   1     -37.384   4.957  -2.569  1.00  0.00     0.225 A 
ATOM     31 C15  LIG L   1     -38.964   5.192  -1.536  1.00  0.00     0.147 A 
ATOM     32  N6  LIG L   1     -38.304   4.608  -2.276  1.00  0.00    -0.219 NA
BRANCH   31   33
ATOM     33  N7  LIG L   1     -39.988   4.971  -1.310  1.00  0.00    -0.341 N 
ATOM     34  H8  LIG L   1     -40.509   4.388  -1.908  1.00  0.00     0.144 HD
ATOM     35  H9  LIG L   1     -40.408   5.350  -0.504  1.00  0.00     0.144 HD
ENDBRANCH   31   33
ENDBRANCH   20   24
BRANCH   21   36
ATOM     36  O5  LIG L   1     -35.765  10.294  -1.186  1.00  0.00    -0.385 OA
ATOM     37 H10  LIG L   1     -36.411  11.017  -1.143  1.00  0.00     0.210 HD
ENDBRANCH   21   36
ENDBRANCH   16   17
ENDBRANCH    1   16
TORSDOF 10
ENDMDL
