examples/TrmD/4_docked.pdbqt
 OpenBabel01022516373D

 27 29  0  0  1  0  0  0  0  0999 V2000
  -33.2230    6.7290   -0.5110 C   0  0  1  0  0  3  0  0  0  0  0  0
  -32.0010    6.3780   -0.3700 N   0  0  0  0  0  4  0  0  0  0  0  0
  -33.9210    5.6600   -0.4350 C   0  0  0  0  0  2  0  0  0  0  0  0
  -33.3340    4.4870   -0.8090 C   0  0  0  0  0  2  0  0  0  0  0  0
  -34.2040    3.4420   -1.2380 C   0  0  2  0  0  3  0  0  0  0  0  0
  -35.2840    3.5960   -0.7670 N   0  0  0  0  0  4  0  0  0  0  0  0
  -33.8610    2.3180   -0.8120 C   0  0  0  0  0  0  0  0  0  0  0  0
  -32.7730    2.1230   -0.6780 O   0  0  0  0  0  0  0  0  0  0  0  0
  -34.6170    1.7290   -0.4920 O   0  0  0  0  0  1  0  0  0  0  0  0
  -33.6150    7.6080    0.3070 C   0  0  0  0  0  2  0  0  0  0  0  0
  -34.4610    8.3910   -0.3120 C   0  0  1  0  0  3  0  0  0  0  0  0
  -35.2710    7.7680   -0.7080 O   0  0  0  0  0  0  0  0  0  0  0  0
  -35.1710    9.1340    0.2750 C   0  0  2  0  0  3  0  0  0  0  0  0
  -36.3760    8.4570   -1.1510 C   0  0  2  0  0  3  0  0  0  0  0  0
  -36.1350    9.4220   -0.5680 C   0  0  2  0  0  3  0  0  0  0  0  0
  -34.6660   10.1050    0.6070 O   0  0  0  0  0  0  0  0  0  0  0  0
  -37.3920    7.6380   -0.9890 N   0  0  0  0  0  0  0  0  0  0  0  0
  -37.5470    6.5370   -1.4510 C   0  0  0  0  0  0  0  0  0  0  0  0
  -38.3580    7.8800   -0.3750 C   0  0  0  0  0  3  0  0  0  0  0  0
  -36.9610    5.9590   -2.1280 N   0  0  0  0  0  0  0  0  0  0  0  0
  -38.6260    6.1140   -1.1260 C   0  0  0  0  0  0  0  0  0  0  0  0
  -39.1410    6.9480   -0.4610 N   0  0  0  0  0  0  0  0  0  0  0  0
  -37.3840    4.9570   -2.5690 C   0  0  0  0  0  3  0  0  0  0  0  0
  -38.9640    5.1920   -1.5360 C   0  0  0  0  0  0  0  0  0  0  0  0
  -38.3040    4.6080   -2.2760 N   0  0  0  0  0  0  0  0  0  0  0  0
  -39.9880    4.9710   -1.3100 N   0  0  0  0  0  0  0  0  0  0  0  0
  -35.7650   10.2940   -1.1860 O   0  0  0  0  0  0  0  0  0  0  0  0
  1  3  1  0  0  0  0
  1  2  1  1  0  0  0
  1 10  1  0  0  0  0
  4  3  1  0  0  0  0
  5  7  1  0  0  0  0
  5  4  1  0  0  0  0
  5  6  1  1  0  0  0
  7  8  2  0  0  0  0
  7  9  1  0  0  0  0
 11 13  1  0  0  0  0
 11 10  1  1  0  0  0
 12 11  1  0  0  0  0
 13 16  1  6  0  0  0
 14 17  1  1  0  0  0
 14 12  1  0  0  0  0
 14 15  1  0  0  0  0
 15 27  1  6  0  0  0
 15 13  1  0  0  0  0
 17 19  1  0  0  0  0
 18 21  1  0  0  0  0
 18 17  1  0  0  0  0
 20 18  2  0  0  0  0
 21 22  1  0  0  0  0
 22 19  2  0  0  0  0
 23 25  2  0  0  0  0
 23 20  1  0  0  0  0
 24 26  1  0  0  0  0
 24 21  2  0  0  0  0
 25 24  1  0  0  0  0
M  END
>  <MODEL>
1

>  <REMARK>
 VINA RESULT:   -10.760      0.000      0.000
 INTER + INTRA:         -12.775
 INTER:                 -12.480
 INTRA:                  -0.295
 UNBOUND:                 3.332
 Flexibility Score: inf
 Active torsions [ 10 ] -> [ 10 ]

>  <TORSDO>
F 10

$$$$
