examples/TrmD/5_docked.pdbqt
 OpenBabel01022516373D

 27 29  0  0  1  0  0  0  0  0999 V2000
  -34.6050    9.4520    0.4590 C   0  0  1  0  0  3  0  0  0  0  0  0
  -34.7440   10.6010    1.0520 N   0  0  0  0  0  4  0  0  0  0  0  0
  -33.5210    8.9690    0.8910 C   0  0  0  0  0  2  0  0  0  0  0  0
  -32.6080    8.6130   -0.0350 C   0  0  0  0  0  2  0  0  0  0  0  0
  -32.1800    7.2360    0.0010 C   0  0  2  0  0  3  0  0  0  0  0  0
  -30.9890    7.1520   -0.0110 N   0  0  0  0  0  4  0  0  0  0  0  0
  -32.5280    6.6050   -1.0510 C   0  0  0  0  0  0  0  0  0  0  0  0
  -33.4580    5.9630   -1.0140 O   0  0  0  0  0  1  0  0  0  0  0  0
  -32.0140    6.8230   -1.8780 O   0  0  0  0  0  0  0  0  0  0  0  0
  -35.5720    8.6440    0.6510 C   0  0  0  0  0  2  0  0  0  0  0  0
  -36.1200    8.3940   -0.4760 C   0  0  1  0  0  3  0  0  0  0  0  0
  -36.3290    7.2820   -0.4920 O   0  0  0  0  0  0  0  0  0  0  0  0
  -37.2300    8.7010   -0.7560 C   0  0  2  0  0  3  0  0  0  0  0  0
  -37.1550    6.8670   -1.4900 C   0  0  2  0  0  3  0  0  0  0  0  0
  -37.5940    7.9460   -1.7210 C   0  0  2  0  0  3  0  0  0  0  0  0
  -37.3000    9.7840   -1.1040 O   0  0  0  0  0  0  0  0  0  0  0  0
  -37.7790    5.8140   -1.0430 N   0  0  0  0  0  0  0  0  0  0  0  0
  -37.3490    4.7320   -0.7930 C   0  0  0  0  0  0  0  0  0  0  0  0
  -38.9040    5.7650   -0.8570 C   0  0  0  0  0  3  0  0  0  0  0  0
  -36.3990    4.3210   -0.8730 N   0  0  0  0  0  0  0  0  0  0  0  0
  -38.2320    4.0130   -0.4510 C   0  0  0  0  0  0  0  0  0  0  0  0
  -39.2290    4.6400   -0.5000 N   0  0  0  0  0  0  0  0  0  0  0  0
  -36.1940    3.1550   -0.6840 C   0  0  0  0  0  3  0  0  0  0  0  0
  -38.0400    2.9630   -0.2930 C   0  0  0  0  0  0  0  0  0  0  0  0
  -36.9640    2.5540   -0.4100 N   0  0  0  0  0  0  0  0  0  0  0  0
  -38.8980    2.3620   -0.1530 N   0  0  0  0  0  0  0  0  0  0  0  0
  -37.2630    8.4630   -2.6970 O   0  0  0  0  0  0  0  0  0  0  0  0
  1 10  1  0  0  0  0
  1  3  1  0  0  0  0
  1  2  1  1  0  0  0
  4  5  1  0  0  0  0
  4  3  1  0  0  0  0
  5  6  1  6  0  0  0
  7  8  1  0  0  0  0
  7  5  1  0  0  0  0
  9  7  2  0  0  0  0
 11 10  1  1  0  0  0
 12 11  1  0  0  0  0
 13 16  1  6  0  0  0
 13 11  1  0  0  0  0
 14 17  1  1  0  0  0
 14 12  1  0  0  0  0
 15 27  1  6  0  0  0
 15 14  1  0  0  0  0
 15 13  1  0  0  0  0
 17 19  1  0  0  0  0
 17 18  1  0  0  0  0
 18 21  1  0  0  0  0
 19 22  2  0  0  0  0
 20 18  2  0  0  0  0
 20 23  1  0  0  0  0
 21 24  2  0  0  0  0
 22 21  1  0  0  0  0
 23 25  2  0  0  0  0
 24 26  1  0  0  0  0
 25 24  1  0  0  0  0
M  END
>  <MODEL>
1

>  <REMARK>
 VINA RESULT:    -8.349      0.000      0.000
 INTER + INTRA:         -12.391
 INTER:                 -11.228
 INTRA:                  -1.164
 UNBOUND:                 0.106
 Flexibility Score: inf
 Active torsions [ 10 ] -> [ 10 ]

>  <TORSDO>
F 10

$$$$
