MODEL 1
REMARK VINA RESULT:    -8.349      0.000      0.000
REMARK INTER + INTRA:         -12.391
REMARK INTER:                 -11.228
REMARK INTRA:                  -1.164
REMARK UNBOUND:                 0.106
REMARK Flexibility Score: inf
REMARK Active torsions [ 10 ] -> [ 10 ]
ROOT
ATOM      1  C1  LIG L   1     -34.605   9.452   0.459  1.00  0.00     0.063 C 
ATOM      2  N1  LIG L   1     -34.744  10.601   1.052  1.00  0.00     0.221 N 
ATOM      3  H1  LIG L   1     -34.751  10.464   2.063  1.00  0.00     0.200 HD
ATOM      4  H2  LIG L   1     -35.622  11.030   0.761  1.00  0.00     0.200 HD
ATOM      5  H3  LIG L   1     -33.967  11.211   0.797  1.00  0.00     0.200 HD
ENDROOT
BRANCH    1    6
ATOM      6  C2  LIG L   1     -33.521   8.969   0.891  1.00  0.00     0.060 C 
BRANCH    6    7
ATOM      7  C3  LIG L   1     -32.608   8.613  -0.035  1.00  0.00     0.066 C 
BRANCH    7    8
ATOM      8  C4  LIG L   1     -32.180   7.236   0.001  1.00  0.00     0.108 C 
ATOM      9  N2  LIG L   1     -30.989   7.152  -0.011  1.00  0.00     0.225 N 
ATOM     10  H4  LIG L   1     -30.629   7.551  -0.878  1.00  0.00     0.200 HD
ATOM     11  H5  LIG L   1     -30.716   6.171   0.051  1.00  0.00     0.200 HD
ATOM     12  H6  LIG L   1     -30.604   7.662   0.783  1.00  0.00     0.200 HD
BRANCH    8   13
ATOM     13  C5  LIG L   1     -32.528   6.605  -1.051  1.00  0.00     0.089 C 
ATOM     14  O1  LIG L   1     -33.458   5.963  -1.014  1.00  0.00    -0.544 OA
ATOM     15  O2  LIG L   1     -32.014   6.823  -1.878  1.00  0.00    -0.544 O 
ENDBRANCH    8   13
ENDBRANCH    7    8
ENDBRANCH    6    7
ENDBRANCH    1    6
BRANCH    1   16
ATOM     16  C6  LIG L   1     -35.572   8.644   0.651  1.00  0.00     0.088 C 
BRANCH   16   17
ATOM     17  C7  LIG L   1     -36.120   8.394  -0.476  1.00  0.00     0.157 C 
ATOM     18  O3  LIG L   1     -36.329   7.282  -0.492  1.00  0.00    -0.348 OA
ATOM     19  C8  LIG L   1     -37.230   8.701  -0.756  1.00  0.00     0.176 C 
ATOM     20  C9  LIG L   1     -37.155   6.867  -1.490  1.00  0.00     0.253 C 
ATOM     21 C10  LIG L   1     -37.594   7.946  -1.721  1.00  0.00     0.195 C 
BRANCH   19   22
ATOM     22  O4  LIG L   1     -37.300   9.784  -1.104  1.00  0.00    -0.387 OA
ATOM     23  H7  LIG L   1     -37.427  10.363  -0.335  1.00  0.00     0.210 HD
ENDBRANCH   19   22
BRANCH   20   24
ATOM     24  N3  LIG L   1     -37.779   5.814  -1.043  1.00  0.00    -0.286 N 
ATOM     25 C11  LIG L   1     -37.349   4.732  -0.793  1.00  0.00     0.167 A 
ATOM     26 C12  LIG L   1     -38.904   5.765  -0.857  1.00  0.00     0.203 A 
ATOM     27  N4  LIG L   1     -36.399   4.321  -0.873  1.00  0.00    -0.216 NA
ATOM     28 C13  LIG L   1     -38.232   4.013  -0.451  1.00  0.00     0.147 A 
ATOM     29  N5  LIG L   1     -39.229   4.640  -0.500  1.00  0.00    -0.231 NA
ATOM     30 C14  LIG L   1     -36.194   3.155  -0.684  1.00  0.00     0.225 A 
ATOM     31 C15  LIG L   1     -38.040   2.963  -0.293  1.00  0.00     0.147 A 
ATOM     32  N6  LIG L   1     -36.964   2.554  -0.410  1.00  0.00    -0.219 NA
BRANCH   31   33
ATOM     33  N7  LIG L   1     -38.898   2.362  -0.153  1.00  0.00    -0.341 N 
ATOM     34  H8  LIG L   1     -39.706   2.523  -0.692  1.00  0.00     0.144 HD
ATOM     35  H9  LIG L   1     -38.890   1.640   0.517  1.00  0.00     0.144 HD
ENDBRANCH   31   33
ENDBRANCH   20   24
BRANCH   21   36
ATOM     36  O5  LIG L   1     -37.263   8.463  -2.697  1.00  0.00    -0.385 OA
ATOM     37 H10  LIG L   1     -37.370   7.851  -3.441  1.00  0.00     0.210 HD
ENDBRANCH   21   36
ENDBRANCH   16   17
ENDBRANCH    1   16
TORSDOF 10
ENDMDL
