
     RDKit          3D

 27 29  0  0  0  0  0  0  0  0999 V2000
  -33.7817    8.0750   -0.2444 C   0  0  0  0  0  0  0  0  0  0  0  0
  -32.6766    7.8041    0.4191 N   0  0  0  0  0  0  0  0  0  0  0  0
  -34.4370    6.9851   -0.3432 C   0  0  0  0  0  0  0  0  0  0  0  0
  -33.9236    5.9791   -1.0502 C   0  0  0  0  0  0  0  0  0  0  0  0
  -34.5834    4.7264   -0.8782 C   0  0  0  0  0  0  0  0  0  0  0  0
  -34.1068    4.0581    0.0563 N   0  0  0  0  0  0  0  0  0  0  0  0
  -34.3811    4.0153   -1.8646 C   0  0  0  0  0  0  0  0  0  0  0  0
  -35.2392    3.7750   -2.4819 O   0  0  0  0  0  0  0  0  0  0  0  0
  -33.4187    3.8134   -2.0711 O   0  0  0  0  0  0  0  0  0  0  0  0
  -34.4541    9.0501    0.3175 C   0  0  0  0  0  0  0  0  0  0  0  0
  -35.2838    9.5083   -0.5796 C   0  0  0  0  0  0  0  0  0  0  0  0
  -34.6526    9.7896   -1.4727 O   0  0  0  0  0  0  0  0  0  0  0  0
  -36.0034    8.7794   -1.2342 C   0  0  0  0  0  0  0  0  0  0  0  0
  -35.3607   10.0036   -2.6054 C   0  0  0  0  0  0  0  0  0  0  0  0
  -36.2871    9.4389   -2.2852 C   0  0  0  0  0  0  0  0  0  0  0  0
  -36.9460    8.5454   -0.6613 O   0  0  0  0  0  0  0  0  0  0  0  0
  -34.5513    9.6587   -3.6369 N   0  0  0  0  0  0  0  0  0  0  0  0
  -34.7272    9.8370   -4.7697 C   0  0  0  0  0  0  0  0  0  0  0  0
  -33.5677    9.1056   -3.5325 C   0  0  0  0  0  0  0  0  0  0  0  0
  -35.5360   10.2891   -5.3237 N   0  0  0  0  0  0  0  0  0  0  0  0
  -33.7810    9.3603   -5.3697 C   0  0  0  0  0  0  0  0  0  0  0  0
  -33.0720    8.9083   -4.6038 N   0  0  0  0  0  0  0  0  0  0  0  0
  -35.5546   10.2839   -6.5049 C   0  0  0  0  0  0  0  0  0  0  0  0
  -33.8096    9.4102   -6.4478 C   0  0  0  0  0  0  0  0  0  0  0  0
  -34.7063    9.8864   -7.0260 N   0  0  0  0  0  0  0  0  0  0  0  0
  -33.0216    8.9225   -6.8897 N   0  0  0  0  0  0  0  0  0  0  0  0
  -37.1860   10.1143   -1.9274 O   0  0  0  0  0  0  0  0  0  0  0  0
  1  2  1  0
  1  3  1  0
  1 10  1  0
  3  4  1  0
  4  5  1  0
  5  6  1  0
  5  7  1  0
  7  8  2  0
  7  9  1  0
 10 11  1  0
 11 12  1  0
 11 13  1  0
 12 14  1  0
 13 15  1  0
 13 16  1  0
 14 15  1  0
 14 17  1  0
 15 27  1  0
 17 18  1  0
 17 19  1  0
 18 20  2  0
 18 21  1  0
 19 22  2  0
 20 23  1  0
 21 22  1  0
 21 24  2  0
 23 25  2  0
 24 25  1  0
 24 26  1  0
M  END
$$$$
