examples/TrmD/6_docked.pdbqt
 OpenBabel01022516373D

 27 29  0  0  1  0  0  0  0  0999 V2000
  -32.7140    8.8220   -4.8440 C   0  0  1  0  0  3  0  0  0  0  0  0
  -33.6520    8.1510   -5.4800 N   0  0  0  0  0  4  0  0  0  0  0  0
  -32.0910    9.5140   -5.7160 C   0  0  0  0  0  2  0  0  0  0  0  0
  -32.4910    9.4730   -6.9860 C   0  0  0  0  0  2  0  0  0  0  0  0
  -32.6420   10.7470   -7.6090 C   0  0  2  0  0  3  0  0  0  0  0  0
  -32.6180   11.6850   -6.7940 N   0  0  0  0  0  4  0  0  0  0  0  0
  -33.7680   10.8320   -8.1040 C   0  0  0  0  0  0  0  0  0  0  0  0
  -34.5970   10.4680   -7.5080 O   0  0  0  0  0  1  0  0  0  0  0  0
  -33.8290   11.3350   -8.9720 O   0  0  0  0  0  0  0  0  0  0  0  0
  -33.2110    9.5310   -3.8600 C   0  0  0  0  0  2  0  0  0  0  0  0
  -34.4340    9.8420   -4.1920 C   0  0  1  0  0  3  0  0  0  0  0  0
  -35.1030    9.3000   -3.4610 O   0  0  0  0  0  0  0  0  0  0  0  0
  -34.9220   10.9250   -3.9390 C   0  0  2  0  0  3  0  0  0  0  0  0
  -36.3840    9.7320   -3.4600 C   0  0  2  0  0  3  0  0  0  0  0  0
  -36.1810   10.7370   -3.9370 C   0  0  2  0  0  3  0  0  0  0  0  0
  -34.6470   11.6730   -4.7380 O   0  0  0  0  0  0  0  0  0  0  0  0
  -36.8520    9.5450   -2.2000 N   0  0  0  0  0  0  0  0  0  0  0  0
  -37.4770    8.6530   -1.7990 C   0  0  0  0  0  0  0  0  0  0  0  0
  -36.7150   10.2720   -1.3420 C   0  0  0  0  0  3  0  0  0  0  0  0
  -37.8670    7.7620   -2.2670 N   0  0  0  0  0  0  0  0  0  0  0  0
  -37.7190    8.8710   -0.6250 C   0  0  0  0  0  0  0  0  0  0  0  0
  -37.2500    9.8700   -0.3500 N   0  0  0  0  0  0  0  0  0  0  0  0
  -38.5720    7.0150   -1.6830 C   0  0  0  0  0  3  0  0  0  0  0  0
  -38.3310    8.1460   -0.1100 C   0  0  0  0  0  0  0  0  0  0  0  0
  -38.7580    7.1990   -0.6420 N   0  0  0  0  0  0  0  0  0  0  0  0
  -38.5580    8.4300    0.8510 N   0  0  0  0  0  0  0  0  0  0  0  0
  -36.4510   10.8100   -5.0840 O   0  0  0  0  0  0  0  0  0  0  0  0
  1  2  1  6  0  0  0
  1 10  1  0  0  0  0
  3  1  1  0  0  0  0
  4  3  1  0  0  0  0
  5  4  1  0  0  0  0
  5  6  1  1  0  0  0
  7  5  1  0  0  0  0
  7  8  1  0  0  0  0
  9  7  2  0  0  0  0
 11 13  1  0  0  0  0
 11 10  1  1  0  0  0
 11 12  1  0  0  0  0
 12 14  1  0  0  0  0
 13 16  1  6  0  0  0
 13 15  1  0  0  0  0
 14 17  1  1  0  0  0
 15 27  1  6  0  0  0
 15 14  1  0  0  0  0
 17 18  1  0  0  0  0
 17 19  1  0  0  0  0
 18 21  1  0  0  0  0
 19 22  2  0  0  0  0
 20 18  2  0  0  0  0
 20 23  1  0  0  0  0
 21 22  1  0  0  0  0
 21 24  2  0  0  0  0
 23 25  2  0  0  0  0
 24 26  1  0  0  0  0
 25 24  1  0  0  0  0
M  END
>  <MODEL>
1

>  <REMARK>
 VINA RESULT:   -11.483      0.000      0.000
 INTER + INTRA:         -18.255
 INTER:                 -16.213
 INTRA:                  -2.043
 UNBOUND:                -1.066
 Flexibility Score: inf
 Active torsions [ 10 ] -> [ 10 ]

>  <TORSDO>
F 10

$$$$
