MODEL 1
REMARK VINA RESULT:   -11.483      0.000      0.000
REMARK INTER + INTRA:         -18.255
REMARK INTER:                 -16.213
REMARK INTRA:                  -2.043
REMARK UNBOUND:                -1.066
REMARK Flexibility Score: inf
REMARK Active torsions [ 10 ] -> [ 10 ]
ROOT
ATOM      1  C1  LIG L   1     -32.714   8.822  -4.844  1.00  0.00     0.063 C 
ATOM      2  N1  LIG L   1     -33.652   8.151  -5.480  1.00  0.00     0.221 N 
ATOM      3  H1  LIG L   1     -34.297   8.805  -5.924  1.00  0.00     0.200 HD
ATOM      4  H2  LIG L   1     -34.163   7.569  -4.816  1.00  0.00     0.200 HD
ATOM      5  H3  LIG L   1     -33.224   7.560  -6.192  1.00  0.00     0.200 HD
ENDROOT
BRANCH    1    6
ATOM      6  C2  LIG L   1     -32.091   9.514  -5.716  1.00  0.00     0.060 C 
BRANCH    6    7
ATOM      7  C3  LIG L   1     -32.491   9.473  -6.986  1.00  0.00     0.066 C 
BRANCH    7    8
ATOM      8  C4  LIG L   1     -32.642  10.747  -7.609  1.00  0.00     0.108 C 
ATOM      9  N2  LIG L   1     -32.618  11.685  -6.794  1.00  0.00     0.225 N 
ATOM     10  H4  LIG L   1     -33.394  11.587  -6.140  1.00  0.00     0.200 HD
ATOM     11  H5  LIG L   1     -32.703  12.572  -7.292  1.00  0.00     0.200 HD
ATOM     12  H6  LIG L   1     -31.737  11.668  -6.281  1.00  0.00     0.200 HD
BRANCH    8   13
ATOM     13  C5  LIG L   1     -33.768  10.832  -8.104  1.00  0.00     0.089 C 
ATOM     14  O1  LIG L   1     -34.597  10.468  -7.508  1.00  0.00    -0.544 OA
ATOM     15  O2  LIG L   1     -33.829  11.335  -8.972  1.00  0.00    -0.544 O 
ENDBRANCH    8   13
ENDBRANCH    7    8
ENDBRANCH    6    7
ENDBRANCH    1    6
BRANCH    1   16
ATOM     16  C6  LIG L   1     -33.211   9.531  -3.860  1.00  0.00     0.088 C 
BRANCH   16   17
ATOM     17  C7  LIG L   1     -34.434   9.842  -4.192  1.00  0.00     0.157 C 
ATOM     18  O3  LIG L   1     -35.103   9.300  -3.461  1.00  0.00    -0.348 OA
ATOM     19  C8  LIG L   1     -34.922  10.925  -3.939  1.00  0.00     0.176 C 
ATOM     20  C9  LIG L   1     -36.384   9.732  -3.460  1.00  0.00     0.253 C 
ATOM     21 C10  LIG L   1     -36.181  10.737  -3.937  1.00  0.00     0.195 C 
BRANCH   19   22
ATOM     22  O4  LIG L   1     -34.647  11.673  -4.738  1.00  0.00    -0.387 OA
ATOM     23  H7  LIG L   1     -35.429  11.873  -5.276  1.00  0.00     0.210 HD
ENDBRANCH   19   22
BRANCH   20   24
ATOM     24  N3  LIG L   1     -36.852   9.545  -2.200  1.00  0.00    -0.286 N 
ATOM     25 C11  LIG L   1     -37.477   8.653  -1.799  1.00  0.00     0.167 A 
ATOM     26 C12  LIG L   1     -36.715  10.272  -1.342  1.00  0.00     0.203 A 
ATOM     27  N4  LIG L   1     -37.867   7.762  -2.267  1.00  0.00    -0.216 NA
ATOM     28 C13  LIG L   1     -37.719   8.871  -0.625  1.00  0.00     0.147 A 
ATOM     29  N5  LIG L   1     -37.250   9.870  -0.350  1.00  0.00    -0.231 NA
ATOM     30 C14  LIG L   1     -38.572   7.015  -1.683  1.00  0.00     0.225 A 
ATOM     31 C15  LIG L   1     -38.331   8.146  -0.110  1.00  0.00     0.147 A 
ATOM     32  N6  LIG L   1     -38.758   7.199  -0.642  1.00  0.00    -0.219 NA
BRANCH   31   33
ATOM     33  N7  LIG L   1     -38.558   8.430   0.851  1.00  0.00    -0.341 N 
ATOM     34  H8  LIG L   1     -39.399   8.907   1.036  1.00  0.00     0.144 HD
ATOM     35  H9  LIG L   1     -37.936   8.226   1.585  1.00  0.00     0.144 HD
ENDBRANCH   31   33
ENDBRANCH   20   24
BRANCH   21   36
ATOM     36  O5  LIG L   1     -36.451  10.810  -5.084  1.00  0.00    -0.385 OA
ATOM     37 H10  LIG L   1     -37.364  10.512  -5.220  1.00  0.00     0.210 HD
ENDBRANCH   21   36
ENDBRANCH   16   17
ENDBRANCH    1   16
TORSDOF 10
ENDMDL
