
     RDKit          3D

 27 29  0  0  0  0  0  0  0  0999 V2000
  -33.7766    8.0827   -0.2416 C   0  0  0  0  0  0  0  0  0  0  0  0
  -32.6821    7.8005    0.4063 N   0  0  0  0  0  0  0  0  0  0  0  0
  -34.4359    7.0364   -0.3030 C   0  0  0  0  0  0  0  0  0  0  0  0
  -33.9285    6.0179   -0.9884 C   0  0  0  0  0  0  0  0  0  0  0  0
  -34.5928    4.7221   -0.8318 C   0  0  0  0  0  0  0  0  0  0  0  0
  -34.1223    4.0721    0.0949 N   0  0  0  0  0  0  0  0  0  0  0  0
  -34.4043    4.0017   -1.8399 C   0  0  0  0  0  0  0  0  0  0  0  0
  -35.2718    3.7448   -2.4787 O   0  0  0  0  0  0  0  0  0  0  0  0
  -33.4233    3.7853   -2.0517 O   0  0  0  0  0  0  0  0  0  0  0  0
  -34.4310    9.0524    0.2961 C   0  0  0  0  0  0  0  0  0  0  0  0
  -35.2306    9.5176   -0.6126 C   0  0  0  0  0  0  0  0  0  0  0  0
  -34.6555    9.8038   -1.4566 O   0  0  0  0  0  0  0  0  0  0  0  0
  -35.9637    8.7878   -1.2550 C   0  0  0  0  0  0  0  0  0  0  0  0
  -35.3728   10.0122   -2.5979 C   0  0  0  0  0  0  0  0  0  0  0  0
  -36.2759    9.4519   -2.3024 C   0  0  0  0  0  0  0  0  0  0  0  0
  -36.9152    8.5315   -0.7304 O   0  0  0  0  0  0  0  0  0  0  0  0
  -34.5790    9.6751   -3.5998 N   0  0  0  0  0  0  0  0  0  0  0  0
  -34.7344    9.8497   -4.7685 C   0  0  0  0  0  0  0  0  0  0  0  0
  -33.5765    9.1281   -3.5055 C   0  0  0  0  0  0  0  0  0  0  0  0
  -35.5216   10.2901   -5.3169 N   0  0  0  0  0  0  0  0  0  0  0  0
  -33.7974    9.3907   -5.3699 C   0  0  0  0  0  0  0  0  0  0  0  0
  -33.0719    8.9475   -4.5860 N   0  0  0  0  0  0  0  0  0  0  0  0
  -35.5419   10.2875   -6.4905 C   0  0  0  0  0  0  0  0  0  0  0  0
  -33.8005    9.4263   -6.4375 C   0  0  0  0  0  0  0  0  0  0  0  0
  -34.7155    9.8801   -7.0077 N   0  0  0  0  0  0  0  0  0  0  0  0
  -33.0129    8.9369   -6.8972 N   0  0  0  0  0  0  0  0  0  0  0  0
  -37.1679   10.1316   -1.9916 O   0  0  0  0  0  0  0  0  0  0  0  0
  1  2  1  0
  1  3  1  0
  1 10  1  0
  3  4  1  0
  4  5  1  0
  5  6  1  0
  5  7  1  0
  7  8  2  0
  7  9  1  0
 10 11  1  0
 11 12  1  0
 11 13  1  0
 12 14  1  0
 13 15  1  0
 13 16  1  0
 14 15  1  0
 14 17  1  0
 15 27  1  0
 17 18  1  0
 17 19  1  0
 18 20  2  0
 18 21  1  0
 19 22  2  0
 20 23  1  0
 21 22  1  0
 21 24  2  0
 23 25  2  0
 24 25  1  0
 24 26  1  0
M  END
$$$$
