examples/TrmD/7_docked.pdbqt
 OpenBabel01022516373D

 27 29  0  0  1  0  0  0  0  0999 V2000
  -38.0000    6.4770   -1.1960 C   0  0  1  0  0  3  0  0  0  0  0  0
  -38.8670    7.4410   -1.0710 N   0  0  0  0  0  4  0  0  0  0  0  0
  -38.6150    5.4980   -1.6410 C   0  0  0  0  0  2  0  0  0  0  0  0
  -37.9660    4.3450   -1.7420 C   0  0  0  0  0  2  0  0  0  0  0  0
  -37.5500    3.7090   -0.4900 C   0  0  2  0  0  3  0  0  0  0  0  0
  -36.5010    3.0860   -0.6160 N   0  0  0  0  0  4  0  0  0  0  0  0
  -38.3820    2.8420   -0.1350 C   0  0  0  0  0  0  0  0  0  0  0  0
  -39.1010    3.0940    0.6700 O   0  0  0  0  0  1  0  0  0  0  0  0
  -38.3960    1.9840   -0.6990 O   0  0  0  0  0  0  0  0  0  0  0  0
  -36.9960    6.8090   -1.9300 C   0  0  0  0  0  2  0  0  0  0  0  0
  -36.6430    8.0040   -1.5680 C   0  0  1  0  0  3  0  0  0  0  0  0
  -36.1440    7.9410   -0.6330 O   0  0  0  0  0  0  0  0  0  0  0  0
  -35.7270    8.5930   -2.1120 C   0  0  2  0  0  3  0  0  0  0  0  0
  -35.4430    9.0570   -0.2810 C   0  0  2  0  0  3  0  0  0  0  0  0
  -35.3660    9.5000   -1.2880 C   0  0  2  0  0  3  0  0  0  0  0  0
  -36.0220    9.1040   -3.0600 O   0  0  0  0  0  0  0  0  0  0  0  0
  -34.4130    8.6350    0.4320 N   0  0  0  0  0  0  0  0  0  0  0  0
  -33.4860    7.9710    0.0860 C   0  0  0  0  0  0  0  0  0  0  0  0
  -34.2400    8.8390    1.5470 C   0  0  0  0  0  3  0  0  0  0  0  0
  -33.2400    7.5340   -0.8430 N   0  0  0  0  0  0  0  0  0  0  0  0
  -32.7560    7.7820    1.0250 C   0  0  0  0  0  0  0  0  0  0  0  0
  -33.2190    8.3270    1.9330 N   0  0  0  0  0  0  0  0  0  0  0  0
  -32.3160    6.8220   -0.9720 C   0  0  0  0  0  3  0  0  0  0  0  0
  -31.8940    7.1640    0.8950 C   0  0  0  0  0  0  0  0  0  0  0  0
  -31.6830    6.6610   -0.1400 N   0  0  0  0  0  0  0  0  0  0  0  0
  -31.3580    6.9680    1.7570 N   0  0  0  0  0  0  0  0  0  0  0  0
  -36.0900   10.3940   -1.4630 O   0  0  0  0  0  0  0  0  0  0  0  0
  1  2  1  6  0  0  0
  3  1  1  0  0  0  0
  4  3  1  0  0  0  0
  4  5  1  0  0  0  0
  5  6  1  6  0  0  0
  5  7  1  0  0  0  0
  7  8  1  0  0  0  0
  9  7  2  0  0  0  0
 10  1  1  0  0  0  0
 11 10  1  6  0  0  0
 11 12  1  0  0  0  0
 12 14  1  0  0  0  0
 13 16  1  6  0  0  0
 13 11  1  0  0  0  0
 13 15  1  0  0  0  0
 14 17  1  6  0  0  0
 15 27  1  1  0  0  0
 15 14  1  0  0  0  0
 17 19  1  0  0  0  0
 18 17  1  0  0  0  0
 18 21  1  0  0  0  0
 19 22  2  0  0  0  0
 20 18  2  0  0  0  0
 21 22  1  0  0  0  0
 23 20  1  0  0  0  0
 23 25  2  0  0  0  0
 24 21  2  0  0  0  0
 24 26  1  0  0  0  0
 25 24  1  0  0  0  0
M  END
>  <MODEL>
1

>  <REMARK>
 VINA RESULT:    -8.835      0.000      0.000
 INTER + INTRA:         -13.712
 INTER:                 -13.578
 INTRA:                  -0.134
 UNBOUND:                -0.487
 Flexibility Score: inf
 Active torsions [ 10 ] -> [ 10 ]

>  <TORSDO>
F 10

$$$$
