MODEL 1
REMARK VINA RESULT:    -8.835      0.000      0.000
REMARK INTER + INTRA:         -13.712
REMARK INTER:                 -13.578
REMARK INTRA:                  -0.134
REMARK UNBOUND:                -0.487
REMARK Flexibility Score: inf
REMARK Active torsions [ 10 ] -> [ 10 ]
ROOT
ATOM      1  C1  LIG L   1     -38.000   6.477  -1.196  1.00  0.00     0.063 C 
ATOM      2  N1  LIG L   1     -38.867   7.441  -1.071  1.00  0.00     0.221 N 
ATOM      3  H1  LIG L   1     -39.271   7.655  -1.983  1.00  0.00     0.200 HD
ATOM      4  H2  LIG L   1     -38.402   8.271  -0.702  1.00  0.00     0.200 HD
ATOM      5  H3  LIG L   1     -39.606   7.154  -0.429  1.00  0.00     0.200 HD
ENDROOT
BRANCH    1    6
ATOM      6  C2  LIG L   1     -38.615   5.498  -1.641  1.00  0.00     0.060 C 
BRANCH    6    7
ATOM      7  C3  LIG L   1     -37.966   4.345  -1.742  1.00  0.00     0.066 C 
BRANCH    7    8
ATOM      8  C4  LIG L   1     -37.550   3.709  -0.490  1.00  0.00     0.108 C 
ATOM      9  N2  LIG L   1     -36.501   3.086  -0.616  1.00  0.00     0.225 N 
ATOM     10  H4  LIG L   1     -36.631   2.334  -1.292  1.00  0.00     0.200 HD
ATOM     11  H5  LIG L   1     -36.231   2.691   0.285  1.00  0.00     0.200 HD
ATOM     12  H6  LIG L   1     -35.769   3.717  -0.944  1.00  0.00     0.200 HD
BRANCH    8   13
ATOM     13  C5  LIG L   1     -38.382   2.842  -0.135  1.00  0.00     0.089 C 
ATOM     14  O1  LIG L   1     -39.101   3.094   0.670  1.00  0.00    -0.544 OA
ATOM     15  O2  LIG L   1     -38.396   1.984  -0.699  1.00  0.00    -0.544 O 
ENDBRANCH    8   13
ENDBRANCH    7    8
ENDBRANCH    6    7
ENDBRANCH    1    6
BRANCH    1   16
ATOM     16  C6  LIG L   1     -36.996   6.809  -1.930  1.00  0.00     0.088 C 
BRANCH   16   17
ATOM     17  C7  LIG L   1     -36.643   8.004  -1.568  1.00  0.00     0.157 C 
ATOM     18  O3  LIG L   1     -36.144   7.941  -0.633  1.00  0.00    -0.348 OA
ATOM     19  C8  LIG L   1     -35.727   8.593  -2.112  1.00  0.00     0.176 C 
ATOM     20  C9  LIG L   1     -35.443   9.057  -0.281  1.00  0.00     0.253 C 
ATOM     21 C10  LIG L   1     -35.366   9.500  -1.288  1.00  0.00     0.195 C 
BRANCH   19   22
ATOM     22  O4  LIG L   1     -36.022   9.104  -3.060  1.00  0.00    -0.387 OA
ATOM     23  H7  LIG L   1     -36.586   9.866  -2.854  1.00  0.00     0.210 HD
ENDBRANCH   19   22
BRANCH   20   24
ATOM     24  N3  LIG L   1     -34.413   8.635   0.432  1.00  0.00    -0.286 N 
ATOM     25 C11  LIG L   1     -33.486   7.971   0.086  1.00  0.00     0.167 A 
ATOM     26 C12  LIG L   1     -34.240   8.839   1.547  1.00  0.00     0.203 A 
ATOM     27  N4  LIG L   1     -33.240   7.534  -0.843  1.00  0.00    -0.216 NA
ATOM     28 C13  LIG L   1     -32.756   7.782   1.025  1.00  0.00     0.147 A 
ATOM     29  N5  LIG L   1     -33.219   8.327   1.933  1.00  0.00    -0.231 NA
ATOM     30 C14  LIG L   1     -32.316   6.822  -0.972  1.00  0.00     0.225 A 
ATOM     31 C15  LIG L   1     -31.894   7.164   0.895  1.00  0.00     0.147 A 
ATOM     32  N6  LIG L   1     -31.683   6.661  -0.140  1.00  0.00    -0.219 NA
BRANCH   31   33
ATOM     33  N7  LIG L   1     -31.358   6.968   1.757  1.00  0.00    -0.341 N 
ATOM     34  H8  LIG L   1     -31.535   7.485   2.576  1.00  0.00     0.144 HD
ATOM     35  H9  LIG L   1     -30.671   6.262   1.759  1.00  0.00     0.144 HD
ENDBRANCH   31   33
ENDBRANCH   20   24
BRANCH   21   36
ATOM     36  O5  LIG L   1     -36.090  10.394  -1.463  1.00  0.00    -0.385 OA
ATOM     37 H10  LIG L   1     -35.751  11.179  -1.004  1.00  0.00     0.210 HD
ENDBRANCH   21   36
ENDBRANCH   16   17
ENDBRANCH    1   16
TORSDOF 10
ENDMDL
