
 OpenBabel01022515053D

 27 29  0  0  1  0  0  0  0  0999 V2000
  -33.5820    7.9760    0.1350 C   0  0  1  0  0  3  0  0  0  0  0  0
  -32.3410    7.7020    0.8720 N   0  0  0  0  0  4  0  0  0  0  0  0
  -34.4400    6.7110    0.1100 C   0  0  0  0  0  2  0  0  0  0  0  0
  -33.8480    5.6690   -0.8390 C   0  0  0  0  0  2  0  0  0  0  0  0
  -34.5720    4.3340   -0.6630 C   0  0  2  0  0  3  0  0  0  0  0  0
  -34.0410    3.6390    0.5180 N   0  0  0  0  0  4  0  0  0  0  0  0
  -34.3040    3.4770   -1.8990 C   0  0  0  0  0  0  0  0  0  0  0  0
  -35.2930    3.2010   -2.6110 O   0  0  0  0  0  0  0  0  0  0  0  0
  -33.1170    3.1370   -2.1020 O   0  0  0  0  0  1  0  0  0  0  0  0
  -34.3740    9.0980    0.8090 C   0  0  0  0  0  2  0  0  0  0  0  0
  -35.2430    9.7610   -0.2590 C   0  0  1  0  0  3  0  0  0  0  0  0
  -34.4190   10.3080   -1.2960 O   0  0  0  0  0  0  0  0  0  0  0  0
  -36.1020    8.7510   -1.0170 C   0  0  2  0  0  3  0  0  0  0  0  0
  -35.2460   10.4560   -2.4610 C   0  0  2  0  0  3  0  0  0  0  0  0
  -36.5020    9.6170   -2.2100 C   0  0  2  0  0  3  0  0  0  0  0  0
  -37.2640    8.4690   -0.2340 O   0  0  0  0  0  0  0  0  0  0  0  0
  -34.4260    9.9140   -3.5630 N   0  0  0  0  0  0  0  0  0  0  0  0
  -34.6880   10.0270   -4.8600 C   0  0  0  0  0  0  0  0  0  0  0  0
  -33.2740    9.2630   -3.4250 C   0  0  0  0  0  3  0  0  0  0  0  0
  -35.6830   10.6000   -5.5510 N   0  0  0  0  0  0  0  0  0  0  0  0
  -33.6440    9.4110   -5.5350 C   0  0  0  0  0  0  0  0  0  0  0  0
  -32.7900    8.9540   -4.6260 N   0  0  0  0  0  0  0  0  0  0  0  0
  -35.6690   10.5820   -6.8710 C   0  0  0  0  0  3  0  0  0  0  0  0
  -33.6730    9.4010   -6.9220 C   0  0  0  0  0  0  0  0  0  0  0  0
  -34.6950   10.0000   -7.5490 N   0  0  0  0  0  0  0  0  0  0  0  0
  -32.7330    8.7610   -7.6120 N   0  0  0  0  0  0  0  0  0  0  0  0
  -37.5800   10.4710   -1.8210 O   0  0  0  0  0  0  0  0  0  0  0  0
  1 10  1  0  0  0  0
  1  2  1  1  0  0  0
  3  1  1  0  0  0  0
  4  5  1  0  0  0  0
  4  3  1  0  0  0  0
  5  6  1  1  0  0  0
  7  5  1  0  0  0  0
  8  7  2  0  0  0  0
  9  7  1  0  0  0  0
 11 10  1  1  0  0  0
 12 11  1  0  0  0  0
 13 11  1  0  0  0  0
 13 16  1  1  0  0  0
 14 17  1  6  0  0  0
 14 15  1  0  0  0  0
 14 12  1  0  0  0  0
 15 27  1  1  0  0  0
 15 13  1  0  0  0  0
 17 19  1  0  0  0  0
 18 17  1  0  0  0  0
 20 18  2  0  0  0  0
 21 18  1  0  0  0  0
 21 22  1  0  0  0  0
 22 19  2  0  0  0  0
 23 20  1  0  0  0  0
 24 21  2  0  0  0  0
 25 24  1  0  0  0  0
 25 23  2  0  0  0  0
 26 24  1  0  0  0  0
M  END
>  <REMARK>
 Flexibility Score: inf
 Active torsions [ 10 ] -> [ 10 ]

>  <TORSDO>
F 10

$$$$
