examples/TrmD/TrmD_pocket_docked.pdbqt
 OpenBabel01022516383D

 28 25  0  0  1  0  0  0  0  0999 V2000
  -34.4580    6.2990   -1.0010 C   0  0  0  0  0  2  0  0  0  0  0  0
  -34.4870    7.4590   -0.0040 C   0  0  0  0  0  2  0  0  0  0  0  0
  -35.0250    8.6880   -0.7350 C   0  0  1  0  0  3  0  0  0  0  0  0
  -34.0120    9.2370   -1.5890 O   0  0  0  0  0  0  0  0  0  0  0  0
  -36.1350    8.3360   -1.7230 C   0  0  2  0  0  3  0  0  0  0  0  0
  -34.6800   10.0300   -2.5830 C   0  0  2  0  0  3  0  0  0  0  0  0
  -36.1570    9.6280   -2.5370 C   0  0  2  0  0  3  0  0  0  0  0  0
  -37.3620    8.2180   -1.0000 O   0  0  0  0  0  0  0  0  0  0  0  0
  -34.0370    9.6410   -3.8540 N   0  0  0  0  0  0  0  0  0  0  0  0
  -32.8550    9.0420   -3.9730 C   0  0  0  0  0  3  0  0  0  0  0  0
  -34.5170    9.8630   -5.0720 C   0  0  1  0  0  3  0  0  0  0  0  0
  -32.5680    8.8760   -5.2630 N   0  0  0  0  0  0  0  0  0  0  0  0
  -35.6340   10.4440   -5.5290 N   0  0  0  0  0  0  0  0  0  0  0  0
  -33.5780    9.3710   -5.9680 C   0  0  0  0  0  0  0  0  0  0  0  0
  -35.8410   10.5530   -6.8280 C   0  0  0  0  0  3  0  0  0  0  0  0
  -33.8390    9.4920   -7.3250 C   0  0  0  0  0  0  0  0  0  0  0  0
  -34.9740   10.0920   -7.7120 N   0  0  0  0  0  0  0  0  0  0  0  0
  -33.0050    8.9720   -8.2220 N   0  0  0  0  0  0  0  0  0  0  0  0
  -36.9010   10.6150   -1.8190 O   0  0  0  0  0  0  0  0  0  0  0  0
  -33.1310    6.1810   -1.6200 N   0  0  0  0  0  0  0  0  0  0  0  0
  -33.5190    5.4240   -2.1840 H   0  0  0  0  0 15  0  0  0  0  0  0
  -34.7820    5.0020   -0.2600 C   0  0  0  0  0  2  0  0  0  0  0  0
  -35.0830    3.8720   -1.2450 C   0  0  0  0  0  1  0  0  0  0  0  0
  -36.4670    3.2880   -0.9590 C   0  0  0  0  0 15  0  0  0  0  0  0
  -36.3850    1.8210   -0.9300 N   0  0  0  0  0  4  0  0  0  0  0  0
  -37.4060    3.7050   -2.0910 C   0  0  0  0  0  3  0  0  0  0  0  0
  -36.9450    3.6370   -3.2500 O   0  0  0  0  0  1  0  0  0  0  0  0
  -38.5590    4.0640   -1.7630 O   0  0  0  0  0  0  0  0  0  0  0  0
  1 22  1  0  0  0  0
  1  2  1  0  0  0  0
  3  2  1  6  0  0  0
  4  3  1  0  0  0  0
  5  8  1  1  0  0  0
  5  3  1  0  0  0  0
  6  9  1  6  0  0  0
  6  7  1  0  0  0  0
  6  4  1  0  0  0  0
  7 19  1  1  0  0  0
  7  5  1  0  0  0  0
 10  9  1  0  0  0  0
 11 14  1  6  0  0  0
 11  9  1  0  0  0  0
 12 10  2  0  0  0  0
 13 11  1  0  0  0  0
 14 12  1  0  0  0  0
 15 13  1  0  0  0  0
 16 14  2  0  0  0  0
 17 16  1  0  0  0  0
 17 15  2  0  0  0  0
 18 16  1  0  0  0  0
 23 22  1  0  0  0  0
 26 28  2  0  0  0  0
 27 26  1  0  0  0  0
M  END
>  <MODEL>
1

>  <REMARK>
 VINA RESULT:   -11.473      0.000      0.000
 INTER + INTRA:         -17.651
 INTER:                 -16.339
 INTRA:                  -1.312
 UNBOUND:                -0.141
 Flexibility Score: inf
 Active torsions [ 12 ] -> [ 12 ]

>  <TORSDO>
F 12

$$$$
