MODEL 1
REMARK VINA RESULT:   -14.625      0.000      0.000
REMARK INTER + INTRA:         -18.907
REMARK INTER:                 -18.330
REMARK INTRA:                  -0.577
REMARK UNBOUND:                -0.863
REMARK Flexibility Score: inf
REMARK Active torsions [ 4 ] -> [ 4 ]
ROOT
ATOM      1  C1  LIG L   1      -1.333  -0.788   0.040  1.00  0.00     0.172 C 
ATOM      2  N1  LIG L   1       0.602   0.551   0.016  1.00  0.00     0.244 N 
ATOM      3  O1  LIG L   1      -2.336  -3.218  -1.368  1.00  0.00    -0.269 OA
ATOM      4  C2  LIG L   1      -0.631   0.297   0.522  1.00  0.00     0.112 C 
ATOM      5  N2  LIG L   1      -0.816  -1.584  -0.912  1.00  0.00    -0.245 N 
ATOM      6  C3  LIG L   1       1.192  -0.190  -0.935  1.00  0.00     0.164 C 
ATOM      7  N3  LIG L   1       0.802  -2.171  -2.333  1.00  0.00     0.256 N 
ATOM      8  C4  LIG L   1       0.479  -1.270  -1.407  1.00  0.00     0.213 C 
ATOM      9  C5  LIG L   1      -1.208  -2.682  -1.585  1.00  0.00     0.268 C 
ATOM     10  C6  LIG L   1      -0.216  -3.057  -2.468  1.00  0.00     0.157 C 
ATOM     11  H1  LIG L   1       1.237   0.533   0.813  1.00  0.00     0.203 HD
ATOM     12  H2  LIG L   1       0.427   1.417  -0.495  1.00  0.00     0.203 HD
ATOM     13  H3  LIG L   1       1.648  -2.664  -2.049  1.00  0.00     0.204 HD
ATOM     14  H4  LIG L   1       0.968  -1.702  -3.224  1.00  0.00     0.204 HD
ENDROOT
BRANCH    4   15
ATOM     15  C7  LIG L   1      -1.205   1.153   1.559  1.00  0.00     0.002 A 
ATOM     16  C8  LIG L   1      -1.432   0.755   2.850  1.00  0.00     0.009 A 
ATOM     17  C9  LIG L   1      -1.539   2.441   1.207  1.00  0.00     0.009 A 
ATOM     18 C10  LIG L   1      -1.975   1.589   3.806  1.00  0.00     0.000 A 
ATOM     19 C11  LIG L   1      -2.084   3.297   2.138  1.00  0.00     0.000 A 
ATOM     20 C12  LIG L   1      -2.300   2.876   3.426  1.00  0.00     0.000 A 
ENDBRANCH    4   15
BRANCH    6   21
ATOM     21 C13  LIG L   1       2.500   0.134  -1.428  1.00  0.00     0.007 A 
ATOM     22 C14  LIG L   1       2.755   0.603  -2.677  1.00  0.00     0.009 A 
ATOM     23 C15  LIG L   1       3.595  -0.042  -0.581  1.00  0.00     0.009 A 
ATOM     24 C16  LIG L   1       4.029   0.905  -3.130  1.00  0.00     0.000 A 
ATOM     25 C17  LIG L   1       4.876   0.252  -1.005  1.00  0.00     0.000 A 
ATOM     26 C18  LIG L   1       5.093   0.731  -2.294  1.00  0.00     0.000 A 
ENDBRANCH    6   21
BRANCH   10   27
ATOM     27 C19  LIG L   1      -0.301  -4.224  -3.376  1.00  0.00     0.099 C 
BRANCH   27   28
ATOM     28 C20  LIG L   1      -1.023  -3.973  -4.621  1.00  0.00    -0.042 A 
ATOM     29 C21  LIG L   1      -0.431  -4.282  -5.839  1.00  0.00     0.004 A 
ATOM     30 C22  LIG L   1      -2.290  -3.434  -4.663  1.00  0.00     0.004 A 
ATOM     31 C23  LIG L   1      -1.083  -4.058  -7.045  1.00  0.00     0.000 A 
ATOM     32 C24  LIG L   1      -2.961  -3.204  -5.866  1.00  0.00     0.000 A 
ATOM     33 C25  LIG L   1      -2.355  -3.518  -7.061  1.00  0.00     0.000 A 
ENDBRANCH   27   28
ENDBRANCH   10   27
TORSDOF 4
ENDMDL
