examples/luxsit/luxsit_pocket_docked.pdbqt
 OpenBabel12212415243D

 29 33  0  0  1  0  0  0  0  0999 V2000
   -1.3330   -0.7880    0.0400 C   0  0  0  0  0  3  0  0  0  0  0  0
    0.6020    0.5510    0.0160 N   0  0  0  0  0  4  0  0  0  0  0  0
   -2.3360   -3.2180   -1.3680 O   0  0  0  0  0  0  0  0  0  0  0  0
   -0.6310    0.2970    0.5220 C   0  0  0  0  0  0  0  0  0  0  0  0
   -0.8160   -1.5840   -0.9120 N   0  0  0  0  0  0  0  0  0  0  0  0
    1.1920   -0.1900   -0.9350 C   0  0  0  0  0  0  0  0  0  0  0  0
    0.8020   -2.1710   -2.3330 N   0  0  0  0  0  4  0  0  0  0  0  0
    0.4790   -1.2700   -1.4070 C   0  0  0  0  0  0  0  0  0  0  0  0
   -1.2080   -2.6820   -1.5850 C   0  0  0  0  0  0  0  0  0  0  0  0
   -0.2160   -3.0570   -2.4680 C   0  0  1  0  0  3  0  0  0  0  0  0
   -1.2050    1.1530    1.5590 C   0  0  0  0  0  0  0  0  0  0  0  0
   -1.4320    0.7550    2.8500 C   0  0  0  0  0  3  0  0  0  0  0  0
   -1.5390    2.4410    1.2070 C   0  0  0  0  0  3  0  0  0  0  0  0
   -1.9750    1.5890    3.8060 C   0  0  0  0  0  3  0  0  0  0  0  0
   -2.0840    3.2970    2.1380 C   0  0  0  0  0  3  0  0  0  0  0  0
   -2.3000    2.8760    3.4260 C   0  0  0  0  0  3  0  0  0  0  0  0
    2.5000    0.1340   -1.4280 C   0  0  0  0  0  0  0  0  0  0  0  0
    2.7550    0.6030   -2.6770 C   0  0  0  0  0  3  0  0  0  0  0  0
    3.5950   -0.0420   -0.5810 C   0  0  0  0  0  3  0  0  0  0  0  0
    4.0290    0.9050   -3.1300 C   0  0  0  0  0  3  0  0  0  0  0  0
    4.8760    0.2520   -1.0050 C   0  0  0  0  0  3  0  0  0  0  0  0
    5.0930    0.7310   -2.2940 C   0  0  0  0  0  3  0  0  0  0  0  0
   -0.3010   -4.2240   -3.3760 C   0  0  0  0  0  2  0  0  0  0  0  0
   -1.0230   -3.9730   -4.6210 C   0  0  0  0  0  0  0  0  0  0  0  0
   -0.4310   -4.2820   -5.8390 C   0  0  0  0  0  3  0  0  0  0  0  0
   -2.2900   -3.4340   -4.6630 C   0  0  0  0  0  3  0  0  0  0  0  0
   -1.0830   -4.0580   -7.0450 C   0  0  0  0  0  3  0  0  0  0  0  0
   -2.9610   -3.2040   -5.8660 C   0  0  0  0  0  3  0  0  0  0  0  0
   -2.3550   -3.5180   -7.0610 C   0  0  0  0  0  3  0  0  0  0  0  0
  1  4  2  0  0  0  0
  2  4  1  0  0  0  0
  4 11  1  0  0  0  0
  5  1  1  0  0  0  0
  6  2  1  0  0  0  0
  7  8  1  0  0  0  0
  8  6  2  0  0  0  0
  8  5  1  0  0  0  0
  9  3  2  0  0  0  0
  9  5  1  0  0  0  0
 10 23  1  6  0  0  0
 10  7  1  0  0  0  0
 10  9  1  0  0  0  0
 11 12  1  0  0  0  0
 12 14  2  0  0  0  0
 13 11  2  0  0  0  0
 13 15  1  0  0  0  0
 15 16  2  0  0  0  0
 16 14  1  0  0  0  0
 17  6  1  0  0  0  0
 17 19  1  0  0  0  0
 18 17  2  0  0  0  0
 20 18  1  0  0  0  0
 20 22  2  0  0  0  0
 21 19  2  0  0  0  0
 22 21  1  0  0  0  0
 24 23  1  0  0  0  0
 25 24  2  0  0  0  0
 26 24  1  0  0  0  0
 27 25  1  0  0  0  0
 28 26  2  0  0  0  0
 29 27  2  0  0  0  0
 29 28  1  0  0  0  0
M  END
>  <MODEL>
1

>  <REMARK>
 VINA RESULT:   -14.625      0.000      0.000
 INTER + INTRA:         -18.907
 INTER:                 -18.330
 INTRA:                  -0.577
 UNBOUND:                -0.863
 Flexibility Score: inf
 Active torsions [ 4 ] -> [ 4 ]

>  <TORSDO>
F 4

$$$$
